
This summary file was generated by TurbSim (v1.50, 25-Sep-2009) on 29-Nov-2024 at 12:13:41.


Runtime Options:

-748972890  Random seed #1
    RANLUX  Type of random number generator
         F  Output binary HH turbulence parameters?
         F  Output formatted turbulence parameters?
         F  Output AeroDyn HH files?
         T  Output AeroDyn FF files?
         T  Output BLADED FF files?
         F  Output tower data?
         F  Output formatted FF files?
         F  Output coherent turbulence time step file?
         T  Clockwise rotation when looking downwind?
 0 -  NONE  IEC turbulence models scaled to exact specified standard deviation


Turbine/Model Specifications:

        56  Vertical grid-point matrix dimension
        56  Horizontal grid-point matrix dimension
     0.050  Time step [seconds]
   650.000  Analysis time [seconds]
   610.000  Usable output time [seconds]
   140.000  Hub height [m]
   220.000  Grid height [m]
   220.000  Grid width [m]
     0.000  Vertical flow angle [degrees]
     0.000  Horizontal flow angle [degrees]


Meteorological Boundary Conditions:

    IECKAI  IEC Kaimal spectral model
         1  IEC standard: IEC 61400-1 Ed. 3: 2005
         B  IEC turbulence characteristic
       NTM  IEC Normal Turbulence Model
       N/A  IEC Extreme Turbulence Model (ETM) "c" parameter [m/s]
       IEC  Wind profile type
   140.000  Reference height [m]
    37.500  Reference wind speed [m/s]
       N/A  Jet height [m]
     0.200  Power law exponent
     0.030  Surface roughness length [m]


You have requested that the following file(s) be generated:

   .\TurbSim.bts (AeroDyn/TurbSim full-field wind file)
   .\TurbSim.wnd (AeroDyn/BLADED full-field wnd file)


Turbulence Simulation Scaling Parameter Summary:

   Turbulence model used                            =  IEC Kaimal
   Turbulence characteristic                        =  B
   IEC turbulence type                              =  Normal Turbulence Model
   IEC standard                                     =  IEC 61400-1 Ed. 3: 2005
   Mean wind speed at hub height                    =   37.500 m/s
   Expected value of turbulence intensity at 15 m/s =   14.000%
   Characteristic value of standard deviation       =    4.721 m/s
   Turbulence scale                                 =   42.000 m
   u-component integral scale                       =  340.200 m
   Coherency scale                                  =  340.200 m
   Characteristic value of hub turbulence intensity =   12.591%
   Gradient Richardson number                       =    0.000

   Wind profile type                                =  Power law on rotor disk, logarithmic elsewhere
   Power law exponent                               =    0.200
   Mean shear across rotor disk                     =    0.066 (m/s)/m
   Assumed rotor diameter                           =  220.000 m
   Surface roughness length                         =    0.030 m

   Number of time steps in the FFT                  =    13000
   Number of time steps output                      =    12318


Mean Flow Angles:

   Vertical   =   0.0 degrees
   Horizontal =   0.0 degrees

Mean Wind Speed Profile:

   Height    Wind Speed   Horizontal Angle  U-comp (X)   V-comp (Y)   W-comp (Z)
     (m)        (m/s)         (degrees)       (m/s)        (m/s)        (m/s)   
   ------    ----------   ----------------  ----------   ----------   ----------
    250.0       42.11            0.00         42.11         0.00         0.00
    246.0       41.98            0.00         41.98         0.00         0.00
    242.0       41.84            0.00         41.84         0.00         0.00
    238.0       41.70            0.00         41.70         0.00         0.00
    234.0       41.56            0.00         41.56         0.00         0.00
    230.0       41.41            0.00         41.41         0.00         0.00
    226.0       41.27            0.00         41.27         0.00         0.00
    222.0       41.12            0.00         41.12         0.00         0.00
    218.0       40.97            0.00         40.97         0.00         0.00
    214.0       40.82            0.00         40.82         0.00         0.00
    210.0       40.67            0.00         40.67         0.00         0.00
    206.0       40.51            0.00         40.51         0.00         0.00
    202.0       40.35            0.00         40.35         0.00         0.00
    198.0       40.19            0.00         40.19         0.00         0.00
    194.0       40.03            0.00         40.03         0.00         0.00
    190.0       39.86            0.00         39.86         0.00         0.00
    186.0       39.69            0.00         39.69         0.00         0.00
    182.0       39.52            0.00         39.52         0.00         0.00
    178.0       39.35            0.00         39.35         0.00         0.00
    174.0       39.17            0.00         39.17         0.00         0.00
    170.0       38.98            0.00         38.98         0.00         0.00
    166.0       38.80            0.00         38.80         0.00         0.00
    162.0       38.61            0.00         38.61         0.00         0.00
    158.0       38.42            0.00         38.42         0.00         0.00
    154.0       38.22            0.00         38.22         0.00         0.00
    150.0       38.02            0.00         38.02         0.00         0.00
    146.0       37.82            0.00         37.82         0.00         0.00
    142.0       37.61            0.00         37.61         0.00         0.00
    140.0       37.50            0.00         37.50         0.00         0.00
    138.0       37.39            0.00         37.39         0.00         0.00
    134.0       37.17            0.00         37.17         0.00         0.00
    130.0       36.95            0.00         36.95         0.00         0.00
    126.0       36.72            0.00         36.72         0.00         0.00
    122.0       36.48            0.00         36.48         0.00         0.00
    118.0       36.24            0.00         36.24         0.00         0.00
    114.0       35.99            0.00         35.99         0.00         0.00
    110.0       35.73            0.00         35.73         0.00         0.00
    106.0       35.47            0.00         35.47         0.00         0.00
    102.0       35.20            0.00         35.20         0.00         0.00
     98.0       34.92            0.00         34.92         0.00         0.00
     94.0       34.63            0.00         34.63         0.00         0.00
     90.0       34.33            0.00         34.33         0.00         0.00
     86.0       34.02            0.00         34.02         0.00         0.00
     82.0       33.70            0.00         33.70         0.00         0.00
     78.0       33.36            0.00         33.36         0.00         0.00
     74.0       33.01            0.00         33.01         0.00         0.00
     70.0       32.65            0.00         32.65         0.00         0.00
     66.0       32.26            0.00         32.26         0.00         0.00
     62.0       31.86            0.00         31.86         0.00         0.00
     58.0       31.44            0.00         31.44         0.00         0.00
     54.0       30.99            0.00         30.99         0.00         0.00
     50.0       30.52            0.00         30.52         0.00         0.00
     46.0       30.02            0.00         30.02         0.00         0.00
     42.0       29.48            0.00         29.48         0.00         0.00
     38.0       28.89            0.00         28.89         0.00         0.00
     34.0       28.26            0.00         28.26         0.00         0.00
     30.0       27.56            0.00         27.56         0.00         0.00


Harvested Random Seeds after Generation of the Random Numbers:

    568385088 K1
            0 K2


Hub-Height Simulated Turbulence Statistical Summary:

   Type of Wind        Min (m/s)   Mean (m/s)    Max (m/s)  Sigma (m/s)       TI (%)
   ----------------    ---------   ----------    ---------  -----------       ------
   Longitudinal (u)        23.59        37.50        50.45        4.189       11.172
   Lateral (v)            -12.92         0.00        16.35        3.700        9.867
   Vertical (w)            -8.24         0.00         9.00        2.263        6.035
   U component             23.59        37.50        50.45        4.189       11.172
   V component            -12.92         0.00        16.35        3.700        9.867
   W component             -8.24         0.00         9.00        2.263        6.035
   Horizontal (U&V)        25.14        37.69        50.91        4.162       11.045
   Total                   25.14        37.75        50.96        4.159       11.017

                       Min Reynolds     Mean Reynolds    Max Reynolds    Correlation
   Product             Stress (m/s)^2   Stress (m/s)^2   Stress (m/s)^2  Coefficient
   ----------------    --------------   --------------   --------------  -----------
   u'w'                    -58.257             0.140            55.446         0.015
   u'v'                   -100.720             0.580           150.608         0.037
   v'w'                    -65.663            -0.375            53.462        -0.045


   Friction Velocity (Ustar)  =      0.374 m/s
   Maximum Instantaneous TKE  =    158.186 (m/s)^2
   Maximum Instantaneous CTKE =     78.177 (m/s)^2


Grid Point Variance Summary:

   Y-coord -110.00 -106.00 -102.00  -98.00  -94.00  -90.00  -86.00  -82.00  -78.00  -74.00  -70.00  -66.00  -62.00  -58.00  -54.00  -50.00  -46.00  -42.00  -38.00  -34.00  -30.00  -26.00  -22.00  -18.00  -14.00  -10.00   -6.00   -2.00    2.00    6.00   10.00   14.00   18.00   22.00   26.00   30.00   34.00   38.00   42.00   46.00   50.00   54.00   58.00   62.00   66.00   70.00   74.00   78.00   82.00   86.00   90.00   94.00   98.00  102.00  106.00  110.00

   Height   Standard deviation at grid points for the u component:
   250.00    4.136   4.294   4.268   4.207   4.326   4.506   4.539   4.568   4.573   4.278   4.390   4.450   4.354   4.440   4.376   4.252   4.158   4.242   4.237   4.231   4.341   4.380   4.326   4.325   4.321   4.213   4.321   4.334   4.476   4.453   4.293   4.125   4.199   4.263   4.371   4.275   4.278   4.250   4.275   4.230   4.344   4.314   4.311   4.211   4.477   4.404   4.449   4.361   4.509   4.613   4.614   4.679   4.714   4.541   4.506   4.602
   246.00    4.220   4.219   4.160   4.208   4.320   4.436   4.426   4.485   4.514   4.317   4.423   4.454   4.466   4.372   4.365   4.307   4.232   4.191   4.366   4.330   4.460   4.370   4.423   4.349   4.412   4.250   4.240   4.390   4.440   4.509   4.388   4.248   4.301   4.190   4.280   4.263   4.406   4.287   4.232   4.348   4.416   4.408   4.243   4.220   4.302   4.284   4.396   4.545   4.644   4.734   4.628   4.675   4.651   4.581   4.677   4.669
   242.00    4.297   4.259   4.159   4.329   4.408   4.461   4.517   4.532   4.544   4.485   4.542   4.367   4.531   4.429   4.451   4.372   4.350   4.338   4.401   4.252   4.368   4.457   4.284   4.213   4.280   4.215   4.342   4.275   4.363   4.304   4.358   4.355   4.340   4.142   4.278   4.294   4.389   4.341   4.242   4.315   4.309   4.305   4.414   4.363   4.228   4.256   4.445   4.476   4.635   4.659   4.719   4.665   4.652   4.625   4.582   4.652
   238.00    4.326   4.400   4.422   4.361   4.491   4.455   4.401   4.506   4.416   4.397   4.366   4.260   4.380   4.396   4.406   4.345   4.343   4.322   4.323   4.392   4.348   4.291   4.358   4.199   4.167   4.168   4.311   4.337   4.175   4.299   4.279   4.359   4.361   4.172   4.206   4.320   4.315   4.277   4.232   4.332   4.381   4.320   4.222   4.231   4.199   4.396   4.435   4.462   4.484   4.557   4.656   4.549   4.709   4.621   4.660   4.670
   234.00    4.386   4.438   4.364   4.308   4.381   4.361   4.335   4.389   4.296   4.389   4.380   4.405   4.297   4.351   4.315   4.345   4.229   4.252   4.249   4.414   4.432   4.537   4.289   4.241   4.265   4.228   4.340   4.375   4.315   4.269   4.350   4.225   4.223   4.092   4.144   4.116   4.067   4.172   4.190   4.169   4.145   4.224   4.244   4.309   4.336   4.374   4.418   4.544   4.513   4.463   4.459   4.452   4.596   4.636   4.658   4.632
   230.00    4.436   4.360   4.337   4.318   4.205   4.287   4.236   4.225   4.254   4.118   4.308   4.299   4.278   4.279   4.304   4.220   4.198   4.232   4.271   4.212   4.302   4.352   4.208   4.218   4.264   4.173   4.146   4.349   4.428   4.321   4.398   4.202   4.084   4.157   4.130   4.120   4.085   4.070   4.057   4.083   4.137   4.143   4.273   4.170   4.363   4.558   4.487   4.364   4.314   4.403   4.541   4.497   4.539   4.721   4.667   4.456
   226.00    4.368   4.506   4.463   4.349   4.328   4.165   4.294   4.369   4.195   4.164   4.277   4.141   4.245   4.360   4.308   4.138   4.170   4.241   4.113   4.143   4.104   4.179   4.178   4.129   4.214   4.136   4.137   4.192   4.339   4.289   4.229   4.254   4.160   4.135   4.189   4.136   4.028   4.141   4.053   4.054   4.082   4.190   4.233   4.174   4.198   4.333   4.394   4.341   4.460   4.404   4.336   4.479   4.455   4.558   4.551   4.471
   222.00    4.353   4.378   4.367   4.374   4.391   4.359   4.340   4.311   4.371   4.318   4.281   4.339   4.313   4.391   4.349   4.370   4.348   4.269   4.252   4.110   4.204   4.130   4.233   4.229   4.072   4.114   4.124   4.286   4.281   4.268   4.203   4.179   4.136   4.277   4.142   4.175   4.171   4.168   4.168   4.166   4.147   4.215   4.244   4.241   4.315   4.374   4.429   4.340   4.396   4.278   4.434   4.384   4.466   4.534   4.481   4.527
   218.00    4.474   4.328   4.416   4.421   4.446   4.491   4.442   4.433   4.382   4.322   4.335   4.414   4.346   4.442   4.378   4.392   4.452   4.421   4.414   4.333   4.309   4.188   4.215   4.172   4.112   4.185   4.213   4.166   4.235   4.147   4.132   4.131   4.196   4.194   4.211   4.192   4.214   4.213   4.190   4.282   4.217   4.363   4.322   4.366   4.416   4.544   4.476   4.484   4.216   4.235   4.465   4.583   4.436   4.549   4.473   4.490
   214.00    4.362   4.379   4.307   4.442   4.550   4.480   4.379   4.373   4.356   4.424   4.326   4.425   4.426   4.369   4.386   4.400   4.527   4.538   4.461   4.471   4.375   4.315   4.187   4.192   4.239   4.216   4.226   4.329   4.214   4.167   4.184   4.184   4.193   4.284   4.303   4.171   4.249   4.283   4.185   4.241   4.281   4.389   4.399   4.475   4.654   4.466   4.530   4.379   4.245   4.123   4.301   4.581   4.595   4.605   4.499   4.467
   210.00    4.361   4.423   4.359   4.353   4.455   4.441   4.370   4.432   4.308   4.356   4.351   4.435   4.458   4.426   4.604   4.474   4.483   4.516   4.521   4.399   4.235   4.234   4.338   4.302   4.275   4.236   4.102   4.289   4.291   4.339   4.186   4.087   4.190   4.323   4.311   4.421   4.347   4.264   4.219   4.246   4.485   4.600   4.659   4.603   4.591   4.451   4.478   4.399   4.381   4.447   4.344   4.492   4.594   4.627   4.750   4.595
   206.00    4.352   4.347   4.403   4.332   4.348   4.354   4.339   4.423   4.383   4.338   4.300   4.357   4.353   4.372   4.518   4.586   4.723   4.537   4.518   4.396   4.326   4.268   4.413   4.288   4.322   4.135   4.010   4.161   4.205   4.234   4.197   4.182   4.143   4.244   4.327   4.333   4.337   4.277   4.271   4.358   4.469   4.586   4.586   4.477   4.450   4.424   4.373   4.532   4.405   4.421   4.394   4.547   4.626   4.649   4.743   4.694
   202.00    4.262   4.371   4.401   4.419   4.445   4.269   4.325   4.424   4.435   4.345   4.288   4.255   4.187   4.375   4.380   4.490   4.511   4.489   4.384   4.376   4.253   4.327   4.147   4.321   4.273   4.117   4.069   4.062   4.043   4.120   4.213   4.300   4.178   4.262   4.413   4.318   4.275   4.348   4.219   4.420   4.480   4.522   4.470   4.475   4.417   4.204   4.274   4.465   4.378   4.420   4.378   4.449   4.567   4.562   4.673   4.692
   198.00    4.291   4.372   4.417   4.513   4.488   4.449   4.413   4.382   4.403   4.424   4.296   4.305   4.280   4.282   4.330   4.433   4.535   4.433   4.464   4.311   4.215   4.256   4.122   4.095   4.218   4.147   4.201   4.119   4.073   4.232   4.365   4.406   4.243   4.236   4.313   4.316   4.221   4.290   4.301   4.497   4.499   4.427   4.461   4.389   4.328   4.133   4.298   4.454   4.421   4.425   4.393   4.381   4.482   4.577   4.651   4.746
   194.00    4.368   4.275   4.386   4.399   4.344   4.409   4.459   4.490   4.418   4.379   4.315   4.228   4.247   4.237   4.314   4.372   4.421   4.423   4.355   4.382   4.298   4.259   4.187   4.100   4.184   4.195   4.180   4.053   4.209   4.260   4.366   4.274   4.316   4.245   4.219   4.267   4.226   4.326   4.308   4.474   4.409   4.409   4.453   4.308   4.250   4.146   4.341   4.406   4.381   4.375   4.479   4.373   4.431   4.574   4.674   4.668
   190.00    4.427   4.357   4.277   4.301   4.411   4.255   4.458   4.396   4.457   4.386   4.209   4.197   4.269   4.155   4.314   4.303   4.226   4.344   4.418   4.368   4.308   4.304   4.265   4.314   4.291   4.128   4.206   4.069   4.205   4.280   4.255   4.298   4.218   4.280   4.335   4.261   4.221   4.218   4.263   4.307   4.433   4.471   4.599   4.473   4.479   4.350   4.254   4.284   4.256   4.250   4.404   4.463   4.523   4.573   4.613   4.545
   186.00    4.394   4.305   4.249   4.287   4.348   4.452   4.440   4.394   4.334   4.237   4.180   4.192   4.189   4.211   4.281   4.157   4.145   4.171   4.226   4.233   4.429   4.346   4.293   4.319   4.405   4.231   4.198   4.178   4.281   4.191   4.222   4.203   4.131   4.186   4.215   4.325   4.193   4.308   4.337   4.417   4.500   4.459   4.471   4.360   4.384   4.368   4.318   4.133   4.155   4.225   4.374   4.427   4.510   4.542   4.515   4.533
   182.00    4.424   4.420   4.355   4.392   4.351   4.458   4.475   4.281   4.168   4.202   4.138   4.109   4.100   4.088   4.161   4.189   4.053   4.168   4.230   4.231   4.262   4.274   4.322   4.282   4.288   4.192   4.147   4.244   4.287   4.356   4.344   4.163   4.176   4.180   4.218   4.162   4.220   4.231   4.304   4.341   4.516   4.432   4.431   4.453   4.452   4.350   4.289   4.220   4.269   4.210   4.281   4.365   4.654   4.689   4.616   4.655
   178.00    4.352   4.411   4.389   4.391   4.408   4.432   4.362   4.248   4.187   4.275   4.118   4.088   4.105   4.045   4.038   4.022   4.035   4.161   4.181   4.219   4.277   4.406   4.411   4.312   4.365   4.209   4.217   4.228   4.173   4.189   4.083   3.969   4.059   4.156   4.210   4.236   4.270   4.257   4.261   4.344   4.443   4.486   4.433   4.433   4.462   4.387   4.459   4.464   4.327   4.318   4.333   4.471   4.708   4.790   4.629   4.593
   174.00    4.292   4.392   4.415   4.262   4.349   4.322   4.229   4.222   4.207   4.191   4.093   4.142   4.060   4.107   3.947   3.975   4.048   4.096   4.209   4.313   4.341   4.252   4.432   4.310   4.434   4.259   4.233   4.083   4.134   4.064   4.096   4.058   3.970   4.035   4.112   4.326   4.228   4.247   4.255   4.213   4.225   4.252   4.368   4.516   4.536   4.446   4.512   4.410   4.433   4.481   4.502   4.516   4.534   4.690   4.603   4.648
   170.00    4.312   4.308   4.267   4.262   4.238   4.233   4.260   4.169   4.157   4.253   4.092   4.025   4.013   4.017   3.987   4.010   4.006   4.174   4.254   4.286   4.400   4.352   4.352   4.382   4.417   4.335   4.243   4.155   4.098   4.011   4.100   4.128   4.102   4.106   4.223   4.310   4.316   4.309   4.157   4.246   4.343   4.205   4.320   4.485   4.649   4.527   4.597   4.501   4.562   4.560   4.706   4.726   4.693   4.581   4.473   4.501
   166.00    4.176   4.179   4.219   4.084   4.239   4.226   4.272   4.120   4.146   4.208   4.194   4.188   4.131   3.872   3.907   4.036   4.104   4.068   4.151   4.268   4.358   4.359   4.356   4.360   4.186   4.248   4.280   4.286   4.033   4.053   3.994   4.068   4.046   4.092   4.043   4.175   4.201   4.209   4.229   4.105   4.394   4.373   4.383   4.495   4.554   4.627   4.666   4.695   4.614   4.700   4.840   4.783   4.563   4.539   4.465   4.450
   162.00    4.253   4.265   4.184   4.195   4.275   4.271   4.218   4.087   4.169   4.226   4.142   4.177   4.145   4.039   4.019   4.052   4.105   4.180   4.177   4.343   4.328   4.396   4.350   4.302   4.359   4.271   4.291   4.284   4.206   4.143   4.072   3.995   4.012   3.967   4.083   4.106   4.046   4.155   4.131   4.170   4.253   4.405   4.535   4.481   4.491   4.498   4.590   4.522   4.526   4.607   4.687   4.635   4.539   4.480   4.417   4.421
   158.00    4.279   4.274   4.144   4.171   4.254   4.137   4.171   4.118   4.220   4.160   4.164   4.151   4.217   4.140   4.116   4.193   4.092   4.132   4.288   4.263   4.395   4.364   4.416   4.328   4.362   4.310   4.261   4.293   4.294   4.238   4.086   3.948   4.061   4.005   3.999   3.958   4.019   4.077   4.155   4.187   4.236   4.437   4.585   4.577   4.599   4.645   4.633   4.337   4.438   4.453   4.489   4.566   4.680   4.525   4.486   4.437
   154.00    4.360   4.290   4.253   4.216   4.156   4.178   4.140   4.129   4.246   4.065   4.095   4.130   4.138   4.138   4.177   4.241   4.046   4.140   4.146   4.301   4.378   4.288   4.316   4.418   4.421   4.378   4.415   4.359   4.265   4.222   4.186   4.071   4.114   4.099   3.982   4.001   4.008   4.170   4.207   4.274   4.157   4.313   4.660   4.709   4.645   4.450   4.429   4.355   4.369   4.481   4.414   4.582   4.589   4.453   4.462   4.510
   150.00    4.232   4.305   4.243   4.275   4.222   4.247   4.261   4.157   4.209   4.132   4.090   4.033   4.150   4.151   4.137   4.232   4.088   4.033   4.157   4.255   4.238   4.300   4.352   4.385   4.484   4.490   4.503   4.381   4.212   4.194   4.299   4.208   4.298   4.104   4.040   4.017   4.041   4.034   4.178   4.208   4.311   4.498   4.605   4.546   4.580   4.472   4.412   4.418   4.475   4.513   4.416   4.404   4.542   4.321   4.370   4.392
   146.00    4.427   4.386   4.268   4.358   4.286   4.266   4.305   4.301   4.235   4.171   4.072   3.998   4.110   4.194   4.170   4.228   4.126   4.021   4.164   4.249   4.154   4.281   4.415   4.352   4.386   4.330   4.369   4.318   4.295   4.297   4.114   4.291   4.348   4.110   4.126   4.027   4.031   4.100   4.215   4.236   4.224   4.424   4.550   4.534   4.438   4.462   4.409   4.372   4.424   4.483   4.446   4.442   4.441   4.324   4.328   4.329
   142.00    4.323   4.290   4.394   4.359   4.293   4.154   4.238   4.267   4.310   4.176   4.071   4.035   4.099   4.130   4.024   4.127   4.001   3.911   4.041   4.231   4.208   4.187   4.278   4.337   4.295   4.236   4.241   4.288   4.195   4.044   4.044   4.153   4.177   4.040   4.165   4.117   4.182   4.256   4.276   4.338   4.293   4.484   4.501   4.544   4.397   4.484   4.443   4.392   4.542   4.450   4.377   4.387   4.386   4.397   4.385   4.470
   138.00    4.484   4.402   4.432   4.304   4.210   4.152   4.133   4.218   4.184   4.135   4.080   4.128   4.055   4.027   4.043   4.104   4.088   4.055   4.090   4.073   4.114   4.155   4.248   4.420   4.351   4.406   4.238   4.092   4.154   4.019   4.053   4.064   4.076   3.977   4.077   4.029   4.178   4.282   4.355   4.283   4.209   4.275   4.491   4.641   4.353   4.435   4.454   4.432   4.618   4.474   4.483   4.357   4.395   4.413   4.421   4.419
   134.00    4.686   4.372   4.335   4.222   4.211   4.119   4.091   4.096   4.214   4.157   4.063   4.176   4.227   4.153   4.141   4.249   4.234   4.218   4.112   4.061   4.098   4.127   4.339   4.472   4.445   4.296   4.108   4.160   4.150   4.043   4.069   3.956   3.959   4.012   3.996   4.120   4.193   4.226   4.191   4.255   4.231   4.259   4.398   4.516   4.470   4.442   4.553   4.517   4.508   4.571   4.584   4.356   4.364   4.380   4.462   4.478
   130.00    4.618   4.395   4.365   4.354   4.256   4.221   4.111   4.080   4.096   4.227   4.224   4.275   4.304   4.257   4.293   4.154   4.175   4.279   4.195   4.237   4.230   4.324   4.426   4.457   4.403   4.337   4.225   4.134   4.171   4.056   4.059   4.019   4.074   4.071   4.075   4.122   4.255   4.314   4.398   4.293   4.212   4.271   4.356   4.335   4.400   4.440   4.453   4.477   4.439   4.484   4.400   4.445   4.346   4.358   4.242   4.383
   126.00    4.455   4.378   4.344   4.236   4.274   4.320   4.278   4.163   4.114   4.325   4.317   4.252   4.410   4.291   4.246   4.226   4.260   4.288   4.313   4.289   4.229   4.302   4.419   4.346   4.363   4.308   4.157   4.216   4.188   4.085   4.105   4.044   4.001   3.995   4.059   4.191   4.295   4.336   4.293   4.329   4.123   4.207   4.274   4.331   4.331   4.500   4.585   4.518   4.444   4.313   4.319   4.334   4.191   4.257   4.252   4.150
   122.00    4.597   4.597   4.492   4.369   4.405   4.421   4.193   4.274   4.180   4.185   4.249   4.169   4.406   4.287   4.280   4.229   4.196   4.314   4.313   4.285   4.296   4.357   4.389   4.458   4.288   4.262   4.235   4.263   4.253   4.258   4.156   4.035   4.039   3.969   4.027   4.204   4.225   4.162   4.122   4.167   4.207   4.183   4.250   4.308   4.373   4.440   4.485   4.374   4.290   4.156   4.090   4.175   4.033   4.113   4.148   4.192
   118.00    4.622   4.592   4.483   4.296   4.434   4.267   4.243   4.222   4.227   4.288   4.185   4.212   4.297   4.341   4.409   4.187   4.119   4.225   4.195   4.365   4.362   4.437   4.431   4.358   4.285   4.235   4.290   4.242   4.249   4.228   4.186   4.073   4.051   3.941   3.995   4.205   4.149   4.172   4.114   4.046   4.081   4.171   4.169   4.224   4.405   4.448   4.394   4.278   4.247   4.096   3.986   3.907   3.975   4.052   4.095   4.112
   114.00    4.781   4.702   4.551   4.426   4.497   4.362   4.258   4.210   4.225   4.227   4.024   3.993   4.247   4.360   4.301   4.386   4.238   4.084   4.212   4.174   4.377   4.477   4.337   4.269   4.399   4.319   4.322   4.349   4.169   4.208   4.180   4.194   4.017   3.951   3.846   4.015   4.054   4.035   4.006   4.095   4.167   4.013   4.109   4.246   4.277   4.340   4.245   4.161   4.081   4.027   3.956   3.882   3.887   4.091   4.128   4.168
   110.00    4.664   4.690   4.682   4.558   4.475   4.316   4.388   4.298   4.349   4.333   4.168   4.112   4.223   4.190   4.177   4.195   4.182   4.060   4.073   4.031   4.339   4.386   4.395   4.321   4.448   4.311   4.309   4.307   4.195   4.199   4.193   4.252   4.136   4.047   3.941   3.954   3.877   3.918   3.982   4.087   4.111   4.166   4.128   4.127   4.221   4.327   4.264   4.143   4.107   4.119   3.937   3.997   4.048   4.129   4.167   4.282
   106.00    4.652   4.532   4.576   4.545   4.476   4.456   4.434   4.287   4.333   4.317   4.359   4.216   4.286   4.269   4.305   4.249   4.204   4.144   4.041   4.050   4.243   4.272   4.309   4.382   4.297   4.332   4.266   4.272   4.283   4.225   4.196   4.265   4.122   4.070   3.932   3.891   3.843   3.758   3.992   4.110   4.050   4.017   4.037   4.074   4.163   4.181   4.323   4.191   4.035   4.011   3.887   3.945   4.072   4.074   4.266   4.321
   102.00    4.574   4.622   4.444   4.456   4.451   4.575   4.484   4.443   4.446   4.540   4.317   4.266   4.273   4.256   4.350   4.251   4.194   4.258   4.000   4.032   4.129   4.239   4.180   4.294   4.259   4.244   4.197   4.184   4.079   4.144   4.157   4.143   4.115   4.017   3.932   3.716   3.773   3.833   3.811   3.925   3.907   3.958   3.926   3.915   4.051   4.129   4.296   4.257   4.077   4.028   4.170   4.176   4.256   4.249   4.293   4.297
    98.00    4.691   4.603   4.486   4.442   4.287   4.482   4.456   4.569   4.536   4.561   4.347   4.194   4.184   4.190   4.234   4.295   4.169   4.182   4.065   4.016   3.974   4.075   4.204   4.296   4.330   4.109   4.124   4.102   4.036   4.142   4.125   4.121   4.083   4.056   3.892   3.775   3.740   3.795   3.902   3.854   3.855   3.846   3.881   3.952   4.111   4.111   4.180   4.203   4.074   4.191   4.200   4.290   4.316   4.305   4.214   4.261
    94.00    4.679   4.596   4.602   4.565   4.439   4.433   4.525   4.527   4.464   4.366   4.330   4.246   4.186   4.139   4.062   4.125   4.100   4.155   4.058   4.042   4.014   4.180   4.175   4.253   4.235   4.107   4.111   4.135   4.155   4.161   4.073   3.931   4.129   4.021   3.935   3.744   3.784   3.750   3.826   3.817   3.817   3.989   3.969   4.042   4.088   4.038   4.154   4.244   4.263   4.217   4.179   4.358   4.364   4.282   4.178   4.178
    90.00    4.706   4.733   4.522   4.517   4.424   4.485   4.480   4.518   4.441   4.400   4.336   4.363   4.299   4.146   4.156   4.086   4.161   4.094   4.092   4.109   4.048   4.106   4.101   4.016   4.176   4.212   4.139   4.143   4.120   4.120   4.003   3.911   4.006   4.053   3.992   3.838   3.808   3.843   3.812   3.811   3.851   3.943   4.012   4.090   4.077   4.210   4.208   4.216   4.207   4.266   4.386   4.331   4.421   4.392   4.264   4.271
    86.00    4.533   4.602   4.597   4.674   4.600   4.562   4.425   4.491   4.475   4.465   4.326   4.233   4.264   4.091   4.216   4.080   4.048   4.065   4.098   3.993   4.141   4.072   4.046   4.072   4.107   4.214   4.215   4.213   4.099   3.978   3.876   3.849   3.896   3.909   3.923   3.938   3.991   3.921   3.800   3.864   3.992   4.014   4.060   4.148   4.189   4.235   4.214   4.235   4.296   4.387   4.369   4.453   4.365   4.359   4.326   4.177
    82.00    4.545   4.551   4.570   4.515   4.555   4.478   4.470   4.466   4.290   4.244   4.202   4.240   4.186   4.212   4.254   4.060   4.044   4.071   4.068   4.039   3.983   4.044   4.200   4.180   4.139   4.221   4.212   4.141   4.013   3.780   3.665   3.877   3.792   3.921   3.997   4.036   3.996   3.883   3.768   3.796   3.904   3.880   4.060   4.154   4.223   4.235   4.201   4.387   4.336   4.348   4.489   4.416   4.435   4.398   4.357   4.281
    78.00    4.593   4.541   4.383   4.492   4.554   4.542   4.504   4.430   4.223   4.146   4.116   4.204   4.132   4.159   4.200   4.088   4.089   4.102   4.063   3.976   4.047   4.020   4.094   4.112   4.215   4.290   4.279   4.090   4.010   3.863   3.753   3.897   3.873   3.859   3.962   3.972   3.823   3.942   3.911   3.927   3.990   3.941   4.053   4.124   4.202   4.244   4.403   4.496   4.365   4.394   4.502   4.527   4.402   4.413   4.248   4.319
    74.00    4.516   4.553   4.644   4.545   4.596   4.622   4.604   4.496   4.236   4.033   4.178   4.058   4.082   4.059   4.109   4.191   4.105   4.074   4.030   4.067   4.065   4.077   4.072   4.031   4.077   4.150   4.129   4.093   4.029   4.021   3.814   3.790   3.947   3.857   3.911   3.845   3.948   3.959   3.913   3.925   4.024   3.958   3.956   4.019   4.141   4.191   4.352   4.465   4.576   4.617   4.640   4.724   4.665   4.533   4.429   4.420
    70.00    4.553   4.720   4.679   4.626   4.587   4.523   4.479   4.362   4.306   3.918   4.144   4.159   4.030   4.060   4.115   4.094   4.092   4.051   4.052   4.098   4.086   4.119   4.103   4.047   4.037   4.046   3.925   3.968   3.958   3.823   3.875   3.781   3.800   3.841   3.811   3.820   3.910   4.016   4.047   4.042   4.056   3.970   3.996   4.085   4.178   4.124   4.250   4.548   4.612   4.669   4.739   4.638   4.727   4.606   4.625   4.689
    66.00    4.698   4.677   4.600   4.632   4.619   4.519   4.526   4.394   4.266   4.184   4.073   4.091   4.123   4.076   4.168   4.146   4.085   4.016   4.055   4.182   4.040   4.012   4.076   4.054   4.100   3.990   3.991   3.958   3.818   3.737   3.752   3.793   3.697   3.778   3.877   3.872   3.884   4.045   4.178   4.117   4.138   4.055   4.015   4.155   4.277   4.284   4.461   4.659   4.757   4.753   4.711   4.716   4.747   4.647   4.719   4.711
    62.00    4.738   4.649   4.445   4.435   4.458   4.352   4.423   4.406   4.250   4.144   4.131   4.123   4.051   3.965   4.126   3.992   4.098   4.087   4.102   4.132   4.092   4.015   3.954   4.035   4.068   4.016   4.110   3.987   3.936   3.738   3.678   3.812   3.767   3.760   3.941   4.007   4.132   4.218   4.336   4.207   4.062   4.000   4.139   4.177   4.315   4.473   4.556   4.741   4.690   4.748   4.742   4.740   4.803   4.769   4.642   4.823
    58.00    4.657   4.590   4.469   4.401   4.302   4.198   4.300   4.266   4.247   4.269   4.222   4.178   4.075   4.038   4.144   4.009   3.928   4.043   4.049   4.041   4.087   4.001   4.043   4.107   4.037   4.171   4.084   4.037   3.972   4.029   3.986   3.846   3.836   3.795   3.912   4.225   4.318   4.220   4.265   4.185   4.240   4.156   4.141   4.226   4.187   4.416   4.583   4.765   4.741   4.745   4.857   4.872   4.911   4.792   4.711   4.629
    54.00    4.692   4.596   4.356   4.393   4.337   4.317   4.320   4.333   4.349   4.231   4.263   4.220   4.184   4.137   4.161   4.028   4.022   4.103   4.029   4.001   4.055   4.029   4.172   4.077   4.110   4.131   4.149   4.052   4.034   4.128   4.089   3.906   4.001   3.945   4.012   4.154   4.405   4.394   4.341   4.225   4.207   4.197   4.181   4.184   4.160   4.378   4.589   4.619   4.695   4.819   4.888   4.896   4.845   4.800   4.755   4.733
    50.00    4.579   4.455   4.556   4.432   4.382   4.255   4.227   4.297   4.356   4.372   4.396   4.265   4.186   4.203   4.139   4.117   4.087   4.155   4.162   4.107   4.173   4.189   4.315   4.190   4.171   4.118   4.214   4.153   4.139   4.149   4.045   3.866   3.828   3.975   4.062   4.222   4.420   4.446   4.362   4.177   4.141   4.263   4.303   4.339   4.282   4.462   4.574   4.633   4.736   4.780   4.763   4.856   4.825   4.932   4.781   4.829
    46.00    4.550   4.627   4.536   4.462   4.496   4.414   4.435   4.352   4.403   4.419   4.307   4.225   4.152   4.200   4.218   4.118   4.097   4.086   4.063   4.236   4.250   4.281   4.414   4.331   4.174   4.153   4.142   4.054   4.132   4.044   3.916   3.945   3.935   4.030   4.111   4.293   4.391   4.321   4.340   4.259   4.208   4.216   4.382   4.411   4.337   4.422   4.610   4.486   4.695   4.705   4.745   4.613   4.706   4.774   4.701   4.813
    42.00    4.570   4.581   4.572   4.550   4.456   4.451   4.310   4.266   4.337   4.395   4.206   4.191   4.189   4.179   4.104   4.114   4.102   4.204   4.149   4.189   4.198   4.300   4.359   4.302   4.277   4.208   4.176   4.048   4.117   4.098   3.957   3.950   4.030   4.068   4.141   4.220   4.252   4.234   4.282   4.409   4.322   4.408   4.330   4.389   4.340   4.362   4.464   4.555   4.578   4.708   4.632   4.693   4.663   4.751   4.753   4.731
    38.00    4.519   4.488   4.622   4.500   4.455   4.352   4.335   4.314   4.239   4.323   4.335   4.256   4.198   4.294   4.237   4.199   4.252   4.381   4.321   4.233   4.176   4.254   4.432   4.231   4.284   4.202   4.139   4.041   4.062   4.017   4.064   4.016   4.022   4.090   3.982   4.111   4.095   4.134   4.102   4.187   4.337   4.370   4.352   4.491   4.426   4.487   4.513   4.560   4.581   4.671   4.535   4.618   4.659   4.753   4.702   4.806
    34.00    4.532   4.538   4.489   4.447   4.359   4.188   4.214   4.293   4.199   4.296   4.344   4.131   4.132   4.200   4.293   4.148   4.354   4.416   4.413   4.245   4.262   4.309   4.359   4.367   4.435   4.421   4.286   4.094   4.064   4.117   4.123   4.063   3.915   3.963   3.907   4.006   3.993   4.192   4.141   4.205   4.323   4.420   4.576   4.639   4.543   4.657   4.564   4.618   4.619   4.555   4.571   4.616   4.717   4.664   4.612   4.687
    30.00    4.621   4.646   4.563   4.497   4.342   4.253   4.169   4.213   4.231   4.179   4.221   4.071   4.153   4.139   4.254   4.218   4.377   4.409   4.421   4.314   4.347   4.414   4.503   4.462   4.406   4.323   4.164   4.141   4.074   4.096   4.128   3.988   3.951   3.937   3.905   3.969   4.129   4.150   4.111   4.169   4.338   4.431   4.474   4.619   4.773   4.690   4.776   4.639   4.585   4.467   4.646   4.651   4.663   4.702   4.657   4.692

   Height   Standard deviation at grid points for the v component:
   250.00    3.700   3.700   3.700   3.700   3.700   3.700   3.700   3.700   3.700   3.700   3.700   3.700   3.700   3.700   3.700   3.700   3.700   3.700   3.700   3.700   3.700   3.700   3.700   3.700   3.700   3.700   3.700   3.700   3.700   3.700   3.700   3.700   3.700   3.700   3.700   3.700   3.700   3.700   3.700   3.700   3.700   3.700   3.700   3.700   3.700   3.700   3.700   3.700   3.700   3.700   3.700   3.700   3.700   3.700   3.700   3.700
   246.00    3.700   3.700   3.700   3.700   3.700   3.700   3.700   3.700   3.700   3.700   3.700   3.700   3.700   3.700   3.700   3.700   3.700   3.700   3.700   3.700   3.700   3.700   3.700   3.700   3.700   3.700   3.700   3.700   3.700   3.700   3.700   3.700   3.700   3.700   3.700   3.700   3.700   3.700   3.700   3.700   3.700   3.700   3.700   3.700   3.700   3.700   3.700   3.700   3.700   3.700   3.700   3.700   3.700   3.700   3.700   3.700
   242.00    3.700   3.700   3.700   3.700   3.700   3.700   3.700   3.700   3.700   3.700   3.700   3.700   3.700   3.700   3.700   3.700   3.700   3.700   3.700   3.700   3.700   3.700   3.700   3.700   3.700   3.700   3.700   3.700   3.700   3.700   3.700   3.700   3.700   3.700   3.700   3.700   3.700   3.700   3.700   3.700   3.700   3.700   3.700   3.700   3.700   3.700   3.700   3.700   3.700   3.700   3.700   3.700   3.700   3.700   3.700   3.700
   238.00    3.700   3.700   3.700   3.700   3.700   3.700   3.700   3.700   3.700   3.700   3.700   3.700   3.700   3.700   3.700   3.700   3.700   3.700   3.700   3.700   3.700   3.700   3.700   3.700   3.700   3.700   3.700   3.700   3.700   3.700   3.700   3.700   3.700   3.700   3.700   3.700   3.700   3.700   3.700   3.700   3.700   3.700   3.700   3.700   3.700   3.700   3.700   3.700   3.700   3.700   3.700   3.700   3.700   3.700   3.700   3.700
   234.00    3.700   3.700   3.700   3.700   3.700   3.700   3.700   3.700   3.700   3.700   3.700   3.700   3.700   3.700   3.700   3.700   3.700   3.700   3.700   3.700   3.700   3.700   3.700   3.700   3.700   3.700   3.700   3.700   3.700   3.700   3.700   3.700   3.700   3.700   3.700   3.700   3.700   3.700   3.700   3.700   3.700   3.700   3.700   3.700   3.700   3.700   3.700   3.700   3.700   3.700   3.700   3.700   3.700   3.700   3.700   3.700
   230.00    3.700   3.700   3.700   3.700   3.700   3.700   3.700   3.700   3.700   3.700   3.700   3.700   3.700   3.700   3.700   3.700   3.700   3.700   3.700   3.700   3.700   3.700   3.700   3.700   3.700   3.700   3.700   3.700   3.700   3.700   3.700   3.700   3.700   3.700   3.700   3.700   3.700   3.700   3.700   3.700   3.700   3.700   3.700   3.700   3.700   3.700   3.700   3.700   3.700   3.700   3.700   3.700   3.700   3.700   3.700   3.700
   226.00    3.700   3.700   3.700   3.700   3.700   3.700   3.700   3.700   3.700   3.700   3.700   3.700   3.700   3.700   3.700   3.700   3.700   3.700   3.700   3.700   3.700   3.700   3.700   3.700   3.700   3.700   3.700   3.700   3.700   3.700   3.700   3.700   3.700   3.700   3.700   3.700   3.700   3.700   3.700   3.700   3.700   3.700   3.700   3.700   3.700   3.700   3.700   3.700   3.700   3.700   3.700   3.700   3.700   3.700   3.700   3.700
   222.00    3.700   3.700   3.700   3.700   3.700   3.700   3.700   3.700   3.700   3.700   3.700   3.700   3.700   3.700   3.700   3.700   3.700   3.700   3.700   3.700   3.700   3.700   3.700   3.700   3.700   3.700   3.700   3.700   3.700   3.700   3.700   3.700   3.700   3.700   3.700   3.700   3.700   3.700   3.700   3.700   3.700   3.700   3.700   3.700   3.700   3.700   3.700   3.700   3.700   3.700   3.700   3.700   3.700   3.700   3.700   3.700
   218.00    3.700   3.700   3.700   3.700   3.700   3.700   3.700   3.700   3.700   3.700   3.700   3.700   3.700   3.700   3.700   3.700   3.700   3.700   3.700   3.700   3.700   3.700   3.700   3.700   3.700   3.700   3.700   3.700   3.700   3.700   3.700   3.700   3.700   3.700   3.700   3.700   3.700   3.700   3.700   3.700   3.700   3.700   3.700   3.700   3.700   3.700   3.700   3.700   3.700   3.700   3.700   3.700   3.700   3.700   3.700   3.700
   214.00    3.700   3.700   3.700   3.700   3.700   3.700   3.700   3.700   3.700   3.700   3.700   3.700   3.700   3.700   3.700   3.700   3.700   3.700   3.700   3.700   3.700   3.700   3.700   3.700   3.700   3.700   3.700   3.700   3.700   3.700   3.700   3.700   3.700   3.700   3.700   3.700   3.700   3.700   3.700   3.700   3.700   3.700   3.700   3.700   3.700   3.700   3.700   3.700   3.700   3.700   3.700   3.700   3.700   3.700   3.700   3.700
   210.00    3.700   3.700   3.700   3.700   3.700   3.700   3.700   3.700   3.700   3.700   3.700   3.700   3.700   3.700   3.700   3.700   3.700   3.700   3.700   3.700   3.700   3.700   3.700   3.700   3.700   3.700   3.700   3.700   3.700   3.700   3.700   3.700   3.700   3.700   3.700   3.700   3.700   3.700   3.700   3.700   3.700   3.700   3.700   3.700   3.700   3.700   3.700   3.700   3.700   3.700   3.700   3.700   3.700   3.700   3.700   3.700
   206.00    3.700   3.700   3.700   3.700   3.700   3.700   3.700   3.700   3.700   3.700   3.700   3.700   3.700   3.700   3.700   3.700   3.700   3.700   3.700   3.700   3.700   3.700   3.700   3.700   3.700   3.700   3.700   3.700   3.700   3.700   3.700   3.700   3.700   3.700   3.700   3.700   3.700   3.700   3.700   3.700   3.700   3.700   3.700   3.700   3.700   3.700   3.700   3.700   3.700   3.700   3.700   3.700   3.700   3.700   3.700   3.700
   202.00    3.700   3.700   3.700   3.700   3.700   3.700   3.700   3.700   3.700   3.700   3.700   3.700   3.700   3.700   3.700   3.700   3.700   3.700   3.700   3.700   3.700   3.700   3.700   3.700   3.700   3.700   3.700   3.700   3.700   3.700   3.700   3.700   3.700   3.700   3.700   3.700   3.700   3.700   3.700   3.700   3.700   3.700   3.700   3.700   3.700   3.700   3.700   3.700   3.700   3.700   3.700   3.700   3.700   3.700   3.700   3.700
   198.00    3.700   3.700   3.700   3.700   3.700   3.700   3.700   3.700   3.700   3.700   3.700   3.700   3.700   3.700   3.700   3.700   3.700   3.700   3.700   3.700   3.700   3.700   3.700   3.700   3.700   3.700   3.700   3.700   3.700   3.700   3.700   3.700   3.700   3.700   3.700   3.700   3.700   3.700   3.700   3.700   3.700   3.700   3.700   3.700   3.700   3.700   3.700   3.700   3.700   3.700   3.700   3.700   3.700   3.700   3.700   3.700
   194.00    3.700   3.700   3.700   3.700   3.700   3.700   3.700   3.700   3.700   3.700   3.700   3.700   3.700   3.700   3.700   3.700   3.700   3.700   3.700   3.700   3.700   3.700   3.700   3.700   3.700   3.700   3.700   3.700   3.700   3.700   3.700   3.700   3.700   3.700   3.700   3.700   3.700   3.700   3.700   3.700   3.700   3.700   3.700   3.700   3.700   3.700   3.700   3.700   3.700   3.700   3.700   3.700   3.700   3.700   3.700   3.700
   190.00    3.700   3.700   3.700   3.700   3.700   3.700   3.700   3.700   3.700   3.700   3.700   3.700   3.700   3.700   3.700   3.700   3.700   3.700   3.700   3.700   3.700   3.700   3.700   3.700   3.700   3.700   3.700   3.700   3.700   3.700   3.700   3.700   3.700   3.700   3.700   3.700   3.700   3.700   3.700   3.700   3.700   3.700   3.700   3.700   3.700   3.700   3.700   3.700   3.700   3.700   3.700   3.700   3.700   3.700   3.700   3.700
   186.00    3.700   3.700   3.700   3.700   3.700   3.700   3.700   3.700   3.700   3.700   3.700   3.700   3.700   3.700   3.700   3.700   3.700   3.700   3.700   3.700   3.700   3.700   3.700   3.700   3.700   3.700   3.700   3.700   3.700   3.700   3.700   3.700   3.700   3.700   3.700   3.700   3.700   3.700   3.700   3.700   3.700   3.700   3.700   3.700   3.700   3.700   3.700   3.700   3.700   3.700   3.700   3.700   3.700   3.700   3.700   3.700
   182.00    3.700   3.700   3.700   3.700   3.700   3.700   3.700   3.700   3.700   3.700   3.700   3.700   3.700   3.700   3.700   3.700   3.700   3.700   3.700   3.700   3.700   3.700   3.700   3.700   3.700   3.700   3.700   3.700   3.700   3.700   3.700   3.700   3.700   3.700   3.700   3.700   3.700   3.700   3.700   3.700   3.700   3.700   3.700   3.700   3.700   3.700   3.700   3.700   3.700   3.700   3.700   3.700   3.700   3.700   3.700   3.700
   178.00    3.700   3.700   3.700   3.700   3.700   3.700   3.700   3.700   3.700   3.700   3.700   3.700   3.700   3.700   3.700   3.700   3.700   3.700   3.700   3.700   3.700   3.700   3.700   3.700   3.700   3.700   3.700   3.700   3.700   3.700   3.700   3.700   3.700   3.700   3.700   3.700   3.700   3.700   3.700   3.700   3.700   3.700   3.700   3.700   3.700   3.700   3.700   3.700   3.700   3.700   3.700   3.700   3.700   3.700   3.700   3.700
   174.00    3.700   3.700   3.700   3.700   3.700   3.700   3.700   3.700   3.700   3.700   3.700   3.700   3.700   3.700   3.700   3.700   3.700   3.700   3.700   3.700   3.700   3.700   3.700   3.700   3.700   3.700   3.700   3.700   3.700   3.700   3.700   3.700   3.700   3.700   3.700   3.700   3.700   3.700   3.700   3.700   3.700   3.700   3.700   3.700   3.700   3.700   3.700   3.700   3.700   3.700   3.700   3.700   3.700   3.700   3.700   3.700
   170.00    3.700   3.700   3.700   3.700   3.700   3.700   3.700   3.700   3.700   3.700   3.700   3.700   3.700   3.700   3.700   3.700   3.700   3.700   3.700   3.700   3.700   3.700   3.700   3.700   3.700   3.700   3.700   3.700   3.700   3.700   3.700   3.700   3.700   3.700   3.700   3.700   3.700   3.700   3.700   3.700   3.700   3.700   3.700   3.700   3.700   3.700   3.700   3.700   3.700   3.700   3.700   3.700   3.700   3.700   3.700   3.700
   166.00    3.700   3.700   3.700   3.700   3.700   3.700   3.700   3.700   3.700   3.700   3.700   3.700   3.700   3.700   3.700   3.700   3.700   3.700   3.700   3.700   3.700   3.700   3.700   3.700   3.700   3.700   3.700   3.700   3.700   3.700   3.700   3.700   3.700   3.700   3.700   3.700   3.700   3.700   3.700   3.700   3.700   3.700   3.700   3.700   3.700   3.700   3.700   3.700   3.700   3.700   3.700   3.700   3.700   3.700   3.700   3.700
   162.00    3.700   3.700   3.700   3.700   3.700   3.700   3.700   3.700   3.700   3.700   3.700   3.700   3.700   3.700   3.700   3.700   3.700   3.700   3.700   3.700   3.700   3.700   3.700   3.700   3.700   3.700   3.700   3.700   3.700   3.700   3.700   3.700   3.700   3.700   3.700   3.700   3.700   3.700   3.700   3.700   3.700   3.700   3.700   3.700   3.700   3.700   3.700   3.700   3.700   3.700   3.700   3.700   3.700   3.700   3.700   3.700
   158.00    3.700   3.700   3.700   3.700   3.700   3.700   3.700   3.700   3.700   3.700   3.700   3.700   3.700   3.700   3.700   3.700   3.700   3.700   3.700   3.700   3.700   3.700   3.700   3.700   3.700   3.700   3.700   3.700   3.700   3.700   3.700   3.700   3.700   3.700   3.700   3.700   3.700   3.700   3.700   3.700   3.700   3.700   3.700   3.700   3.700   3.700   3.700   3.700   3.700   3.700   3.700   3.700   3.700   3.700   3.700   3.700
   154.00    3.700   3.700   3.700   3.700   3.700   3.700   3.700   3.700   3.700   3.700   3.700   3.700   3.700   3.700   3.700   3.700   3.700   3.700   3.700   3.700   3.700   3.700   3.700   3.700   3.700   3.700   3.700   3.700   3.700   3.700   3.700   3.700   3.700   3.700   3.700   3.700   3.700   3.700   3.700   3.700   3.700   3.700   3.700   3.700   3.700   3.700   3.700   3.700   3.700   3.700   3.700   3.700   3.700   3.700   3.700   3.700
   150.00    3.700   3.700   3.700   3.700   3.700   3.700   3.700   3.700   3.700   3.700   3.700   3.700   3.700   3.700   3.700   3.700   3.700   3.700   3.700   3.700   3.700   3.700   3.700   3.700   3.700   3.700   3.700   3.700   3.700   3.700   3.700   3.700   3.700   3.700   3.700   3.700   3.700   3.700   3.700   3.700   3.700   3.700   3.700   3.700   3.700   3.700   3.700   3.700   3.700   3.700   3.700   3.700   3.700   3.700   3.700   3.700
   146.00    3.700   3.700   3.700   3.700   3.700   3.700   3.700   3.700   3.700   3.700   3.700   3.700   3.700   3.700   3.700   3.700   3.700   3.700   3.700   3.700   3.700   3.700   3.700   3.700   3.700   3.700   3.700   3.700   3.700   3.700   3.700   3.700   3.700   3.700   3.700   3.700   3.700   3.700   3.700   3.700   3.700   3.700   3.700   3.700   3.700   3.700   3.700   3.700   3.700   3.700   3.700   3.700   3.700   3.700   3.700   3.700
   142.00    3.700   3.700   3.700   3.700   3.700   3.700   3.700   3.700   3.700   3.700   3.700   3.700   3.700   3.700   3.700   3.700   3.700   3.700   3.700   3.700   3.700   3.700   3.700   3.700   3.700   3.700   3.700   3.700   3.700   3.700   3.700   3.700   3.700   3.700   3.700   3.700   3.700   3.700   3.700   3.700   3.700   3.700   3.700   3.700   3.700   3.700   3.700   3.700   3.700   3.700   3.700   3.700   3.700   3.700   3.700   3.700
   138.00    3.700   3.700   3.700   3.700   3.700   3.700   3.700   3.700   3.700   3.700   3.700   3.700   3.700   3.700   3.700   3.700   3.700   3.700   3.700   3.700   3.700   3.700   3.700   3.700   3.700   3.700   3.700   3.700   3.700   3.700   3.700   3.700   3.700   3.700   3.700   3.700   3.700   3.700   3.700   3.700   3.700   3.700   3.700   3.700   3.700   3.700   3.700   3.700   3.700   3.700   3.700   3.700   3.700   3.700   3.700   3.700
   134.00    3.700   3.700   3.700   3.700   3.700   3.700   3.700   3.700   3.700   3.700   3.700   3.700   3.700   3.700   3.700   3.700   3.700   3.700   3.700   3.700   3.700   3.700   3.700   3.700   3.700   3.700   3.700   3.700   3.700   3.700   3.700   3.700   3.700   3.700   3.700   3.700   3.700   3.700   3.700   3.700   3.700   3.700   3.700   3.700   3.700   3.700   3.700   3.700   3.700   3.700   3.700   3.700   3.700   3.700   3.700   3.700
   130.00    3.700   3.700   3.700   3.700   3.700   3.700   3.700   3.700   3.700   3.700   3.700   3.700   3.700   3.700   3.700   3.700   3.700   3.700   3.700   3.700   3.700   3.700   3.700   3.700   3.700   3.700   3.700   3.700   3.700   3.700   3.700   3.700   3.700   3.700   3.700   3.700   3.700   3.700   3.700   3.700   3.700   3.700   3.700   3.700   3.700   3.700   3.700   3.700   3.700   3.700   3.700   3.700   3.700   3.700   3.700   3.700
   126.00    3.700   3.700   3.700   3.700   3.700   3.700   3.700   3.700   3.700   3.700   3.700   3.700   3.700   3.700   3.700   3.700   3.700   3.700   3.700   3.700   3.700   3.700   3.700   3.700   3.700   3.700   3.700   3.700   3.700   3.700   3.700   3.700   3.700   3.700   3.700   3.700   3.700   3.700   3.700   3.700   3.700   3.700   3.700   3.700   3.700   3.700   3.700   3.700   3.700   3.700   3.700   3.700   3.700   3.700   3.700   3.700
   122.00    3.700   3.700   3.700   3.700   3.700   3.700   3.700   3.700   3.700   3.700   3.700   3.700   3.700   3.700   3.700   3.700   3.700   3.700   3.700   3.700   3.700   3.700   3.700   3.700   3.700   3.700   3.700   3.700   3.700   3.700   3.700   3.700   3.700   3.700   3.700   3.700   3.700   3.700   3.700   3.700   3.700   3.700   3.700   3.700   3.700   3.700   3.700   3.700   3.700   3.700   3.700   3.700   3.700   3.700   3.700   3.700
   118.00    3.700   3.700   3.700   3.700   3.700   3.700   3.700   3.700   3.700   3.700   3.700   3.700   3.700   3.700   3.700   3.700   3.700   3.700   3.700   3.700   3.700   3.700   3.700   3.700   3.700   3.700   3.700   3.700   3.700   3.700   3.700   3.700   3.700   3.700   3.700   3.700   3.700   3.700   3.700   3.700   3.700   3.700   3.700   3.700   3.700   3.700   3.700   3.700   3.700   3.700   3.700   3.700   3.700   3.700   3.700   3.700
   114.00    3.700   3.700   3.700   3.700   3.700   3.700   3.700   3.700   3.700   3.700   3.700   3.700   3.700   3.700   3.700   3.700   3.700   3.700   3.700   3.700   3.700   3.700   3.700   3.700   3.700   3.700   3.700   3.700   3.700   3.700   3.700   3.700   3.700   3.700   3.700   3.700   3.700   3.700   3.700   3.700   3.700   3.700   3.700   3.700   3.700   3.700   3.700   3.700   3.700   3.700   3.700   3.700   3.700   3.700   3.700   3.700
   110.00    3.700   3.700   3.700   3.700   3.700   3.700   3.700   3.700   3.700   3.700   3.700   3.700   3.700   3.700   3.700   3.700   3.700   3.700   3.700   3.700   3.700   3.700   3.700   3.700   3.700   3.700   3.700   3.700   3.700   3.700   3.700   3.700   3.700   3.700   3.700   3.700   3.700   3.700   3.700   3.700   3.700   3.700   3.700   3.700   3.700   3.700   3.700   3.700   3.700   3.700   3.700   3.700   3.700   3.700   3.700   3.700
   106.00    3.700   3.700   3.700   3.700   3.700   3.700   3.700   3.700   3.700   3.700   3.700   3.700   3.700   3.700   3.700   3.700   3.700   3.700   3.700   3.700   3.700   3.700   3.700   3.700   3.700   3.700   3.700   3.700   3.700   3.700   3.700   3.700   3.700   3.700   3.700   3.700   3.700   3.700   3.700   3.700   3.700   3.700   3.700   3.700   3.700   3.700   3.700   3.700   3.700   3.700   3.700   3.700   3.700   3.700   3.700   3.700
   102.00    3.700   3.700   3.700   3.700   3.700   3.700   3.700   3.700   3.700   3.700   3.700   3.700   3.700   3.700   3.700   3.700   3.700   3.700   3.700   3.700   3.700   3.700   3.700   3.700   3.700   3.700   3.700   3.700   3.700   3.700   3.700   3.700   3.700   3.700   3.700   3.700   3.700   3.700   3.700   3.700   3.700   3.700   3.700   3.700   3.700   3.700   3.700   3.700   3.700   3.700   3.700   3.700   3.700   3.700   3.700   3.700
    98.00    3.700   3.700   3.700   3.700   3.700   3.700   3.700   3.700   3.700   3.700   3.700   3.700   3.700   3.700   3.700   3.700   3.700   3.700   3.700   3.700   3.700   3.700   3.700   3.700   3.700   3.700   3.700   3.700   3.700   3.700   3.700   3.700   3.700   3.700   3.700   3.700   3.700   3.700   3.700   3.700   3.700   3.700   3.700   3.700   3.700   3.700   3.700   3.700   3.700   3.700   3.700   3.700   3.700   3.700   3.700   3.700
    94.00    3.700   3.700   3.700   3.700   3.700   3.700   3.700   3.700   3.700   3.700   3.700   3.700   3.700   3.700   3.700   3.700   3.700   3.700   3.700   3.700   3.700   3.700   3.700   3.700   3.700   3.700   3.700   3.700   3.700   3.700   3.700   3.700   3.700   3.700   3.700   3.700   3.700   3.700   3.700   3.700   3.700   3.700   3.700   3.700   3.700   3.700   3.700   3.700   3.700   3.700   3.700   3.700   3.700   3.700   3.700   3.700
    90.00    3.700   3.700   3.700   3.700   3.700   3.700   3.700   3.700   3.700   3.700   3.700   3.700   3.700   3.700   3.700   3.700   3.700   3.700   3.700   3.700   3.700   3.700   3.700   3.700   3.700   3.700   3.700   3.700   3.700   3.700   3.700   3.700   3.700   3.700   3.700   3.700   3.700   3.700   3.700   3.700   3.700   3.700   3.700   3.700   3.700   3.700   3.700   3.700   3.700   3.700   3.700   3.700   3.700   3.700   3.700   3.700
    86.00    3.700   3.700   3.700   3.700   3.700   3.700   3.700   3.700   3.700   3.700   3.700   3.700   3.700   3.700   3.700   3.700   3.700   3.700   3.700   3.700   3.700   3.700   3.700   3.700   3.700   3.700   3.700   3.700   3.700   3.700   3.700   3.700   3.700   3.700   3.700   3.700   3.700   3.700   3.700   3.700   3.700   3.700   3.700   3.700   3.700   3.700   3.700   3.700   3.700   3.700   3.700   3.700   3.700   3.700   3.700   3.700
    82.00    3.700   3.700   3.700   3.700   3.700   3.700   3.700   3.700   3.700   3.700   3.700   3.700   3.700   3.700   3.700   3.700   3.700   3.700   3.700   3.700   3.700   3.700   3.700   3.700   3.700   3.700   3.700   3.700   3.700   3.700   3.700   3.700   3.700   3.700   3.700   3.700   3.700   3.700   3.700   3.700   3.700   3.700   3.700   3.700   3.700   3.700   3.700   3.700   3.700   3.700   3.700   3.700   3.700   3.700   3.700   3.700
    78.00    3.700   3.700   3.700   3.700   3.700   3.700   3.700   3.700   3.700   3.700   3.700   3.700   3.700   3.700   3.700   3.700   3.700   3.700   3.700   3.700   3.700   3.700   3.700   3.700   3.700   3.700   3.700   3.700   3.700   3.700   3.700   3.700   3.700   3.700   3.700   3.700   3.700   3.700   3.700   3.700   3.700   3.700   3.700   3.700   3.700   3.700   3.700   3.700   3.700   3.700   3.700   3.700   3.700   3.700   3.700   3.700
    74.00    3.700   3.700   3.700   3.700   3.700   3.700   3.700   3.700   3.700   3.700   3.700   3.700   3.700   3.700   3.700   3.700   3.700   3.700   3.700   3.700   3.700   3.700   3.700   3.700   3.700   3.700   3.700   3.700   3.700   3.700   3.700   3.700   3.700   3.700   3.700   3.700   3.700   3.700   3.700   3.700   3.700   3.700   3.700   3.700   3.700   3.700   3.700   3.700   3.700   3.700   3.700   3.700   3.700   3.700   3.700   3.700
    70.00    3.700   3.700   3.700   3.700   3.700   3.700   3.700   3.700   3.700   3.700   3.700   3.700   3.700   3.700   3.700   3.700   3.700   3.700   3.700   3.700   3.700   3.700   3.700   3.700   3.700   3.700   3.700   3.700   3.700   3.700   3.700   3.700   3.700   3.700   3.700   3.700   3.700   3.700   3.700   3.700   3.700   3.700   3.700   3.700   3.700   3.700   3.700   3.700   3.700   3.700   3.700   3.700   3.700   3.700   3.700   3.700
    66.00    3.700   3.700   3.700   3.700   3.700   3.700   3.700   3.700   3.700   3.700   3.700   3.700   3.700   3.700   3.700   3.700   3.700   3.700   3.700   3.700   3.700   3.700   3.700   3.700   3.700   3.700   3.700   3.700   3.700   3.700   3.700   3.700   3.700   3.700   3.700   3.700   3.700   3.700   3.700   3.700   3.700   3.700   3.700   3.700   3.700   3.700   3.700   3.700   3.700   3.700   3.700   3.700   3.700   3.700   3.700   3.700
    62.00    3.700   3.700   3.700   3.700   3.700   3.700   3.700   3.700   3.700   3.700   3.700   3.700   3.700   3.700   3.700   3.700   3.700   3.700   3.700   3.700   3.700   3.700   3.700   3.700   3.700   3.700   3.700   3.700   3.700   3.700   3.700   3.700   3.700   3.700   3.700   3.700   3.700   3.700   3.700   3.700   3.700   3.700   3.700   3.700   3.700   3.700   3.700   3.700   3.700   3.700   3.700   3.700   3.700   3.700   3.700   3.700
    58.00    3.700   3.700   3.700   3.700   3.700   3.700   3.700   3.700   3.700   3.700   3.700   3.700   3.700   3.700   3.700   3.700   3.700   3.700   3.700   3.700   3.700   3.700   3.700   3.700   3.700   3.700   3.700   3.700   3.700   3.700   3.700   3.700   3.700   3.700   3.700   3.700   3.700   3.700   3.700   3.700   3.700   3.700   3.700   3.700   3.700   3.700   3.700   3.700   3.700   3.700   3.700   3.700   3.700   3.700   3.700   3.700
    54.00    3.700   3.700   3.700   3.700   3.700   3.700   3.700   3.700   3.700   3.700   3.700   3.700   3.700   3.700   3.700   3.700   3.700   3.700   3.700   3.700   3.700   3.700   3.700   3.700   3.700   3.700   3.700   3.700   3.700   3.700   3.700   3.700   3.700   3.700   3.700   3.700   3.700   3.700   3.700   3.700   3.700   3.700   3.700   3.700   3.700   3.700   3.700   3.700   3.700   3.700   3.700   3.700   3.700   3.700   3.700   3.700
    50.00    3.700   3.700   3.700   3.700   3.700   3.700   3.700   3.700   3.700   3.700   3.700   3.700   3.700   3.700   3.700   3.700   3.700   3.700   3.700   3.700   3.700   3.700   3.700   3.700   3.700   3.700   3.700   3.700   3.700   3.700   3.700   3.700   3.700   3.700   3.700   3.700   3.700   3.700   3.700   3.700   3.700   3.700   3.700   3.700   3.700   3.700   3.700   3.700   3.700   3.700   3.700   3.700   3.700   3.700   3.700   3.700
    46.00    3.700   3.700   3.700   3.700   3.700   3.700   3.700   3.700   3.700   3.700   3.700   3.700   3.700   3.700   3.700   3.700   3.700   3.700   3.700   3.700   3.700   3.700   3.700   3.700   3.700   3.700   3.700   3.700   3.700   3.700   3.700   3.700   3.700   3.700   3.700   3.700   3.700   3.700   3.700   3.700   3.700   3.700   3.700   3.700   3.700   3.700   3.700   3.700   3.700   3.700   3.700   3.700   3.700   3.700   3.700   3.700
    42.00    3.700   3.700   3.700   3.700   3.700   3.700   3.700   3.700   3.700   3.700   3.700   3.700   3.700   3.700   3.700   3.700   3.700   3.700   3.700   3.700   3.700   3.700   3.700   3.700   3.700   3.700   3.700   3.700   3.700   3.700   3.700   3.700   3.700   3.700   3.700   3.700   3.700   3.700   3.700   3.700   3.700   3.700   3.700   3.700   3.700   3.700   3.700   3.700   3.700   3.700   3.700   3.700   3.700   3.700   3.700   3.700
    38.00    3.700   3.700   3.700   3.700   3.700   3.700   3.700   3.700   3.700   3.700   3.700   3.700   3.700   3.700   3.700   3.700   3.700   3.700   3.700   3.700   3.700   3.700   3.700   3.700   3.700   3.700   3.700   3.700   3.700   3.700   3.700   3.700   3.700   3.700   3.700   3.700   3.700   3.700   3.700   3.700   3.700   3.700   3.700   3.700   3.700   3.700   3.700   3.700   3.700   3.700   3.700   3.700   3.700   3.700   3.700   3.700
    34.00    3.700   3.700   3.700   3.700   3.700   3.700   3.700   3.700   3.700   3.700   3.700   3.700   3.700   3.700   3.700   3.700   3.700   3.700   3.700   3.700   3.700   3.700   3.700   3.700   3.700   3.700   3.700   3.700   3.700   3.700   3.700   3.700   3.700   3.700   3.700   3.700   3.700   3.700   3.700   3.700   3.700   3.700   3.700   3.700   3.700   3.700   3.700   3.700   3.700   3.700   3.700   3.700   3.700   3.700   3.700   3.700
    30.00    3.700   3.700   3.700   3.700   3.700   3.700   3.700   3.700   3.700   3.700   3.700   3.700   3.700   3.700   3.700   3.700   3.700   3.700   3.700   3.700   3.700   3.700   3.700   3.700   3.700   3.700   3.700   3.700   3.700   3.700   3.700   3.700   3.700   3.700   3.700   3.700   3.700   3.700   3.700   3.700   3.700   3.700   3.700   3.700   3.700   3.700   3.700   3.700   3.700   3.700   3.700   3.700   3.700   3.700   3.700   3.700

   Height   Standard deviation at grid points for the w component:
   250.00    2.263   2.263   2.263   2.263   2.263   2.263   2.263   2.263   2.263   2.263   2.263   2.263   2.263   2.263   2.263   2.263   2.263   2.263   2.263   2.263   2.263   2.263   2.263   2.263   2.263   2.263   2.263   2.263   2.263   2.263   2.263   2.263   2.263   2.263   2.263   2.263   2.263   2.263   2.263   2.263   2.263   2.263   2.263   2.263   2.263   2.263   2.263   2.263   2.263   2.263   2.263   2.263   2.263   2.263   2.263   2.263
   246.00    2.263   2.263   2.263   2.263   2.263   2.263   2.263   2.263   2.263   2.263   2.263   2.263   2.263   2.263   2.263   2.263   2.263   2.263   2.263   2.263   2.263   2.263   2.263   2.263   2.263   2.263   2.263   2.263   2.263   2.263   2.263   2.263   2.263   2.263   2.263   2.263   2.263   2.263   2.263   2.263   2.263   2.263   2.263   2.263   2.263   2.263   2.263   2.263   2.263   2.263   2.263   2.263   2.263   2.263   2.263   2.263
   242.00    2.263   2.263   2.263   2.263   2.263   2.263   2.263   2.263   2.263   2.263   2.263   2.263   2.263   2.263   2.263   2.263   2.263   2.263   2.263   2.263   2.263   2.263   2.263   2.263   2.263   2.263   2.263   2.263   2.263   2.263   2.263   2.263   2.263   2.263   2.263   2.263   2.263   2.263   2.263   2.263   2.263   2.263   2.263   2.263   2.263   2.263   2.263   2.263   2.263   2.263   2.263   2.263   2.263   2.263   2.263   2.263
   238.00    2.263   2.263   2.263   2.263   2.263   2.263   2.263   2.263   2.263   2.263   2.263   2.263   2.263   2.263   2.263   2.263   2.263   2.263   2.263   2.263   2.263   2.263   2.263   2.263   2.263   2.263   2.263   2.263   2.263   2.263   2.263   2.263   2.263   2.263   2.263   2.263   2.263   2.263   2.263   2.263   2.263   2.263   2.263   2.263   2.263   2.263   2.263   2.263   2.263   2.263   2.263   2.263   2.263   2.263   2.263   2.263
   234.00    2.263   2.263   2.263   2.263   2.263   2.263   2.263   2.263   2.263   2.263   2.263   2.263   2.263   2.263   2.263   2.263   2.263   2.263   2.263   2.263   2.263   2.263   2.263   2.263   2.263   2.263   2.263   2.263   2.263   2.263   2.263   2.263   2.263   2.263   2.263   2.263   2.263   2.263   2.263   2.263   2.263   2.263   2.263   2.263   2.263   2.263   2.263   2.263   2.263   2.263   2.263   2.263   2.263   2.263   2.263   2.263
   230.00    2.263   2.263   2.263   2.263   2.263   2.263   2.263   2.263   2.263   2.263   2.263   2.263   2.263   2.263   2.263   2.263   2.263   2.263   2.263   2.263   2.263   2.263   2.263   2.263   2.263   2.263   2.263   2.263   2.263   2.263   2.263   2.263   2.263   2.263   2.263   2.263   2.263   2.263   2.263   2.263   2.263   2.263   2.263   2.263   2.263   2.263   2.263   2.263   2.263   2.263   2.263   2.263   2.263   2.263   2.263   2.263
   226.00    2.263   2.263   2.263   2.263   2.263   2.263   2.263   2.263   2.263   2.263   2.263   2.263   2.263   2.263   2.263   2.263   2.263   2.263   2.263   2.263   2.263   2.263   2.263   2.263   2.263   2.263   2.263   2.263   2.263   2.263   2.263   2.263   2.263   2.263   2.263   2.263   2.263   2.263   2.263   2.263   2.263   2.263   2.263   2.263   2.263   2.263   2.263   2.263   2.263   2.263   2.263   2.263   2.263   2.263   2.263   2.263
   222.00    2.263   2.263   2.263   2.263   2.263   2.263   2.263   2.263   2.263   2.263   2.263   2.263   2.263   2.263   2.263   2.263   2.263   2.263   2.263   2.263   2.263   2.263   2.263   2.263   2.263   2.263   2.263   2.263   2.263   2.263   2.263   2.263   2.263   2.263   2.263   2.263   2.263   2.263   2.263   2.263   2.263   2.263   2.263   2.263   2.263   2.263   2.263   2.263   2.263   2.263   2.263   2.263   2.263   2.263   2.263   2.263
   218.00    2.263   2.263   2.263   2.263   2.263   2.263   2.263   2.263   2.263   2.263   2.263   2.263   2.263   2.263   2.263   2.263   2.263   2.263   2.263   2.263   2.263   2.263   2.263   2.263   2.263   2.263   2.263   2.263   2.263   2.263   2.263   2.263   2.263   2.263   2.263   2.263   2.263   2.263   2.263   2.263   2.263   2.263   2.263   2.263   2.263   2.263   2.263   2.263   2.263   2.263   2.263   2.263   2.263   2.263   2.263   2.263
   214.00    2.263   2.263   2.263   2.263   2.263   2.263   2.263   2.263   2.263   2.263   2.263   2.263   2.263   2.263   2.263   2.263   2.263   2.263   2.263   2.263   2.263   2.263   2.263   2.263   2.263   2.263   2.263   2.263   2.263   2.263   2.263   2.263   2.263   2.263   2.263   2.263   2.263   2.263   2.263   2.263   2.263   2.263   2.263   2.263   2.263   2.263   2.263   2.263   2.263   2.263   2.263   2.263   2.263   2.263   2.263   2.263
   210.00    2.263   2.263   2.263   2.263   2.263   2.263   2.263   2.263   2.263   2.263   2.263   2.263   2.263   2.263   2.263   2.263   2.263   2.263   2.263   2.263   2.263   2.263   2.263   2.263   2.263   2.263   2.263   2.263   2.263   2.263   2.263   2.263   2.263   2.263   2.263   2.263   2.263   2.263   2.263   2.263   2.263   2.263   2.263   2.263   2.263   2.263   2.263   2.263   2.263   2.263   2.263   2.263   2.263   2.263   2.263   2.263
   206.00    2.263   2.263   2.263   2.263   2.263   2.263   2.263   2.263   2.263   2.263   2.263   2.263   2.263   2.263   2.263   2.263   2.263   2.263   2.263   2.263   2.263   2.263   2.263   2.263   2.263   2.263   2.263   2.263   2.263   2.263   2.263   2.263   2.263   2.263   2.263   2.263   2.263   2.263   2.263   2.263   2.263   2.263   2.263   2.263   2.263   2.263   2.263   2.263   2.263   2.263   2.263   2.263   2.263   2.263   2.263   2.263
   202.00    2.263   2.263   2.263   2.263   2.263   2.263   2.263   2.263   2.263   2.263   2.263   2.263   2.263   2.263   2.263   2.263   2.263   2.263   2.263   2.263   2.263   2.263   2.263   2.263   2.263   2.263   2.263   2.263   2.263   2.263   2.263   2.263   2.263   2.263   2.263   2.263   2.263   2.263   2.263   2.263   2.263   2.263   2.263   2.263   2.263   2.263   2.263   2.263   2.263   2.263   2.263   2.263   2.263   2.263   2.263   2.263
   198.00    2.263   2.263   2.263   2.263   2.263   2.263   2.263   2.263   2.263   2.263   2.263   2.263   2.263   2.263   2.263   2.263   2.263   2.263   2.263   2.263   2.263   2.263   2.263   2.263   2.263   2.263   2.263   2.263   2.263   2.263   2.263   2.263   2.263   2.263   2.263   2.263   2.263   2.263   2.263   2.263   2.263   2.263   2.263   2.263   2.263   2.263   2.263   2.263   2.263   2.263   2.263   2.263   2.263   2.263   2.263   2.263
   194.00    2.263   2.263   2.263   2.263   2.263   2.263   2.263   2.263   2.263   2.263   2.263   2.263   2.263   2.263   2.263   2.263   2.263   2.263   2.263   2.263   2.263   2.263   2.263   2.263   2.263   2.263   2.263   2.263   2.263   2.263   2.263   2.263   2.263   2.263   2.263   2.263   2.263   2.263   2.263   2.263   2.263   2.263   2.263   2.263   2.263   2.263   2.263   2.263   2.263   2.263   2.263   2.263   2.263   2.263   2.263   2.263
   190.00    2.263   2.263   2.263   2.263   2.263   2.263   2.263   2.263   2.263   2.263   2.263   2.263   2.263   2.263   2.263   2.263   2.263   2.263   2.263   2.263   2.263   2.263   2.263   2.263   2.263   2.263   2.263   2.263   2.263   2.263   2.263   2.263   2.263   2.263   2.263   2.263   2.263   2.263   2.263   2.263   2.263   2.263   2.263   2.263   2.263   2.263   2.263   2.263   2.263   2.263   2.263   2.263   2.263   2.263   2.263   2.263
   186.00    2.263   2.263   2.263   2.263   2.263   2.263   2.263   2.263   2.263   2.263   2.263   2.263   2.263   2.263   2.263   2.263   2.263   2.263   2.263   2.263   2.263   2.263   2.263   2.263   2.263   2.263   2.263   2.263   2.263   2.263   2.263   2.263   2.263   2.263   2.263   2.263   2.263   2.263   2.263   2.263   2.263   2.263   2.263   2.263   2.263   2.263   2.263   2.263   2.263   2.263   2.263   2.263   2.263   2.263   2.263   2.263
   182.00    2.263   2.263   2.263   2.263   2.263   2.263   2.263   2.263   2.263   2.263   2.263   2.263   2.263   2.263   2.263   2.263   2.263   2.263   2.263   2.263   2.263   2.263   2.263   2.263   2.263   2.263   2.263   2.263   2.263   2.263   2.263   2.263   2.263   2.263   2.263   2.263   2.263   2.263   2.263   2.263   2.263   2.263   2.263   2.263   2.263   2.263   2.263   2.263   2.263   2.263   2.263   2.263   2.263   2.263   2.263   2.263
   178.00    2.263   2.263   2.263   2.263   2.263   2.263   2.263   2.263   2.263   2.263   2.263   2.263   2.263   2.263   2.263   2.263   2.263   2.263   2.263   2.263   2.263   2.263   2.263   2.263   2.263   2.263   2.263   2.263   2.263   2.263   2.263   2.263   2.263   2.263   2.263   2.263   2.263   2.263   2.263   2.263   2.263   2.263   2.263   2.263   2.263   2.263   2.263   2.263   2.263   2.263   2.263   2.263   2.263   2.263   2.263   2.263
   174.00    2.263   2.263   2.263   2.263   2.263   2.263   2.263   2.263   2.263   2.263   2.263   2.263   2.263   2.263   2.263   2.263   2.263   2.263   2.263   2.263   2.263   2.263   2.263   2.263   2.263   2.263   2.263   2.263   2.263   2.263   2.263   2.263   2.263   2.263   2.263   2.263   2.263   2.263   2.263   2.263   2.263   2.263   2.263   2.263   2.263   2.263   2.263   2.263   2.263   2.263   2.263   2.263   2.263   2.263   2.263   2.263
   170.00    2.263   2.263   2.263   2.263   2.263   2.263   2.263   2.263   2.263   2.263   2.263   2.263   2.263   2.263   2.263   2.263   2.263   2.263   2.263   2.263   2.263   2.263   2.263   2.263   2.263   2.263   2.263   2.263   2.263   2.263   2.263   2.263   2.263   2.263   2.263   2.263   2.263   2.263   2.263   2.263   2.263   2.263   2.263   2.263   2.263   2.263   2.263   2.263   2.263   2.263   2.263   2.263   2.263   2.263   2.263   2.263
   166.00    2.263   2.263   2.263   2.263   2.263   2.263   2.263   2.263   2.263   2.263   2.263   2.263   2.263   2.263   2.263   2.263   2.263   2.263   2.263   2.263   2.263   2.263   2.263   2.263   2.263   2.263   2.263   2.263   2.263   2.263   2.263   2.263   2.263   2.263   2.263   2.263   2.263   2.263   2.263   2.263   2.263   2.263   2.263   2.263   2.263   2.263   2.263   2.263   2.263   2.263   2.263   2.263   2.263   2.263   2.263   2.263
   162.00    2.263   2.263   2.263   2.263   2.263   2.263   2.263   2.263   2.263   2.263   2.263   2.263   2.263   2.263   2.263   2.263   2.263   2.263   2.263   2.263   2.263   2.263   2.263   2.263   2.263   2.263   2.263   2.263   2.263   2.263   2.263   2.263   2.263   2.263   2.263   2.263   2.263   2.263   2.263   2.263   2.263   2.263   2.263   2.263   2.263   2.263   2.263   2.263   2.263   2.263   2.263   2.263   2.263   2.263   2.263   2.263
   158.00    2.263   2.263   2.263   2.263   2.263   2.263   2.263   2.263   2.263   2.263   2.263   2.263   2.263   2.263   2.263   2.263   2.263   2.263   2.263   2.263   2.263   2.263   2.263   2.263   2.263   2.263   2.263   2.263   2.263   2.263   2.263   2.263   2.263   2.263   2.263   2.263   2.263   2.263   2.263   2.263   2.263   2.263   2.263   2.263   2.263   2.263   2.263   2.263   2.263   2.263   2.263   2.263   2.263   2.263   2.263   2.263
   154.00    2.263   2.263   2.263   2.263   2.263   2.263   2.263   2.263   2.263   2.263   2.263   2.263   2.263   2.263   2.263   2.263   2.263   2.263   2.263   2.263   2.263   2.263   2.263   2.263   2.263   2.263   2.263   2.263   2.263   2.263   2.263   2.263   2.263   2.263   2.263   2.263   2.263   2.263   2.263   2.263   2.263   2.263   2.263   2.263   2.263   2.263   2.263   2.263   2.263   2.263   2.263   2.263   2.263   2.263   2.263   2.263
   150.00    2.263   2.263   2.263   2.263   2.263   2.263   2.263   2.263   2.263   2.263   2.263   2.263   2.263   2.263   2.263   2.263   2.263   2.263   2.263   2.263   2.263   2.263   2.263   2.263   2.263   2.263   2.263   2.263   2.263   2.263   2.263   2.263   2.263   2.263   2.263   2.263   2.263   2.263   2.263   2.263   2.263   2.263   2.263   2.263   2.263   2.263   2.263   2.263   2.263   2.263   2.263   2.263   2.263   2.263   2.263   2.263
   146.00    2.263   2.263   2.263   2.263   2.263   2.263   2.263   2.263   2.263   2.263   2.263   2.263   2.263   2.263   2.263   2.263   2.263   2.263   2.263   2.263   2.263   2.263   2.263   2.263   2.263   2.263   2.263   2.263   2.263   2.263   2.263   2.263   2.263   2.263   2.263   2.263   2.263   2.263   2.263   2.263   2.263   2.263   2.263   2.263   2.263   2.263   2.263   2.263   2.263   2.263   2.263   2.263   2.263   2.263   2.263   2.263
   142.00    2.263   2.263   2.263   2.263   2.263   2.263   2.263   2.263   2.263   2.263   2.263   2.263   2.263   2.263   2.263   2.263   2.263   2.263   2.263   2.263   2.263   2.263   2.263   2.263   2.263   2.263   2.263   2.263   2.263   2.263   2.263   2.263   2.263   2.263   2.263   2.263   2.263   2.263   2.263   2.263   2.263   2.263   2.263   2.263   2.263   2.263   2.263   2.263   2.263   2.263   2.263   2.263   2.263   2.263   2.263   2.263
   138.00    2.263   2.263   2.263   2.263   2.263   2.263   2.263   2.263   2.263   2.263   2.263   2.263   2.263   2.263   2.263   2.263   2.263   2.263   2.263   2.263   2.263   2.263   2.263   2.263   2.263   2.263   2.263   2.263   2.263   2.263   2.263   2.263   2.263   2.263   2.263   2.263   2.263   2.263   2.263   2.263   2.263   2.263   2.263   2.263   2.263   2.263   2.263   2.263   2.263   2.263   2.263   2.263   2.263   2.263   2.263   2.263
   134.00    2.263   2.263   2.263   2.263   2.263   2.263   2.263   2.263   2.263   2.263   2.263   2.263   2.263   2.263   2.263   2.263   2.263   2.263   2.263   2.263   2.263   2.263   2.263   2.263   2.263   2.263   2.263   2.263   2.263   2.263   2.263   2.263   2.263   2.263   2.263   2.263   2.263   2.263   2.263   2.263   2.263   2.263   2.263   2.263   2.263   2.263   2.263   2.263   2.263   2.263   2.263   2.263   2.263   2.263   2.263   2.263
   130.00    2.263   2.263   2.263   2.263   2.263   2.263   2.263   2.263   2.263   2.263   2.263   2.263   2.263   2.263   2.263   2.263   2.263   2.263   2.263   2.263   2.263   2.263   2.263   2.263   2.263   2.263   2.263   2.263   2.263   2.263   2.263   2.263   2.263   2.263   2.263   2.263   2.263   2.263   2.263   2.263   2.263   2.263   2.263   2.263   2.263   2.263   2.263   2.263   2.263   2.263   2.263   2.263   2.263   2.263   2.263   2.263
   126.00    2.263   2.263   2.263   2.263   2.263   2.263   2.263   2.263   2.263   2.263   2.263   2.263   2.263   2.263   2.263   2.263   2.263   2.263   2.263   2.263   2.263   2.263   2.263   2.263   2.263   2.263   2.263   2.263   2.263   2.263   2.263   2.263   2.263   2.263   2.263   2.263   2.263   2.263   2.263   2.263   2.263   2.263   2.263   2.263   2.263   2.263   2.263   2.263   2.263   2.263   2.263   2.263   2.263   2.263   2.263   2.263
   122.00    2.263   2.263   2.263   2.263   2.263   2.263   2.263   2.263   2.263   2.263   2.263   2.263   2.263   2.263   2.263   2.263   2.263   2.263   2.263   2.263   2.263   2.263   2.263   2.263   2.263   2.263   2.263   2.263   2.263   2.263   2.263   2.263   2.263   2.263   2.263   2.263   2.263   2.263   2.263   2.263   2.263   2.263   2.263   2.263   2.263   2.263   2.263   2.263   2.263   2.263   2.263   2.263   2.263   2.263   2.263   2.263
   118.00    2.263   2.263   2.263   2.263   2.263   2.263   2.263   2.263   2.263   2.263   2.263   2.263   2.263   2.263   2.263   2.263   2.263   2.263   2.263   2.263   2.263   2.263   2.263   2.263   2.263   2.263   2.263   2.263   2.263   2.263   2.263   2.263   2.263   2.263   2.263   2.263   2.263   2.263   2.263   2.263   2.263   2.263   2.263   2.263   2.263   2.263   2.263   2.263   2.263   2.263   2.263   2.263   2.263   2.263   2.263   2.263
   114.00    2.263   2.263   2.263   2.263   2.263   2.263   2.263   2.263   2.263   2.263   2.263   2.263   2.263   2.263   2.263   2.263   2.263   2.263   2.263   2.263   2.263   2.263   2.263   2.263   2.263   2.263   2.263   2.263   2.263   2.263   2.263   2.263   2.263   2.263   2.263   2.263   2.263   2.263   2.263   2.263   2.263   2.263   2.263   2.263   2.263   2.263   2.263   2.263   2.263   2.263   2.263   2.263   2.263   2.263   2.263   2.263
   110.00    2.263   2.263   2.263   2.263   2.263   2.263   2.263   2.263   2.263   2.263   2.263   2.263   2.263   2.263   2.263   2.263   2.263   2.263   2.263   2.263   2.263   2.263   2.263   2.263   2.263   2.263   2.263   2.263   2.263   2.263   2.263   2.263   2.263   2.263   2.263   2.263   2.263   2.263   2.263   2.263   2.263   2.263   2.263   2.263   2.263   2.263   2.263   2.263   2.263   2.263   2.263   2.263   2.263   2.263   2.263   2.263
   106.00    2.263   2.263   2.263   2.263   2.263   2.263   2.263   2.263   2.263   2.263   2.263   2.263   2.263   2.263   2.263   2.263   2.263   2.263   2.263   2.263   2.263   2.263   2.263   2.263   2.263   2.263   2.263   2.263   2.263   2.263   2.263   2.263   2.263   2.263   2.263   2.263   2.263   2.263   2.263   2.263   2.263   2.263   2.263   2.263   2.263   2.263   2.263   2.263   2.263   2.263   2.263   2.263   2.263   2.263   2.263   2.263
   102.00    2.263   2.263   2.263   2.263   2.263   2.263   2.263   2.263   2.263   2.263   2.263   2.263   2.263   2.263   2.263   2.263   2.263   2.263   2.263   2.263   2.263   2.263   2.263   2.263   2.263   2.263   2.263   2.263   2.263   2.263   2.263   2.263   2.263   2.263   2.263   2.263   2.263   2.263   2.263   2.263   2.263   2.263   2.263   2.263   2.263   2.263   2.263   2.263   2.263   2.263   2.263   2.263   2.263   2.263   2.263   2.263
    98.00    2.263   2.263   2.263   2.263   2.263   2.263   2.263   2.263   2.263   2.263   2.263   2.263   2.263   2.263   2.263   2.263   2.263   2.263   2.263   2.263   2.263   2.263   2.263   2.263   2.263   2.263   2.263   2.263   2.263   2.263   2.263   2.263   2.263   2.263   2.263   2.263   2.263   2.263   2.263   2.263   2.263   2.263   2.263   2.263   2.263   2.263   2.263   2.263   2.263   2.263   2.263   2.263   2.263   2.263   2.263   2.263
    94.00    2.263   2.263   2.263   2.263   2.263   2.263   2.263   2.263   2.263   2.263   2.263   2.263   2.263   2.263   2.263   2.263   2.263   2.263   2.263   2.263   2.263   2.263   2.263   2.263   2.263   2.263   2.263   2.263   2.263   2.263   2.263   2.263   2.263   2.263   2.263   2.263   2.263   2.263   2.263   2.263   2.263   2.263   2.263   2.263   2.263   2.263   2.263   2.263   2.263   2.263   2.263   2.263   2.263   2.263   2.263   2.263
    90.00    2.263   2.263   2.263   2.263   2.263   2.263   2.263   2.263   2.263   2.263   2.263   2.263   2.263   2.263   2.263   2.263   2.263   2.263   2.263   2.263   2.263   2.263   2.263   2.263   2.263   2.263   2.263   2.263   2.263   2.263   2.263   2.263   2.263   2.263   2.263   2.263   2.263   2.263   2.263   2.263   2.263   2.263   2.263   2.263   2.263   2.263   2.263   2.263   2.263   2.263   2.263   2.263   2.263   2.263   2.263   2.263
    86.00    2.263   2.263   2.263   2.263   2.263   2.263   2.263   2.263   2.263   2.263   2.263   2.263   2.263   2.263   2.263   2.263   2.263   2.263   2.263   2.263   2.263   2.263   2.263   2.263   2.263   2.263   2.263   2.263   2.263   2.263   2.263   2.263   2.263   2.263   2.263   2.263   2.263   2.263   2.263   2.263   2.263   2.263   2.263   2.263   2.263   2.263   2.263   2.263   2.263   2.263   2.263   2.263   2.263   2.263   2.263   2.263
    82.00    2.263   2.263   2.263   2.263   2.263   2.263   2.263   2.263   2.263   2.263   2.263   2.263   2.263   2.263   2.263   2.263   2.263   2.263   2.263   2.263   2.263   2.263   2.263   2.263   2.263   2.263   2.263   2.263   2.263   2.263   2.263   2.263   2.263   2.263   2.263   2.263   2.263   2.263   2.263   2.263   2.263   2.263   2.263   2.263   2.263   2.263   2.263   2.263   2.263   2.263   2.263   2.263   2.263   2.263   2.263   2.263
    78.00    2.263   2.263   2.263   2.263   2.263   2.263   2.263   2.263   2.263   2.263   2.263   2.263   2.263   2.263   2.263   2.263   2.263   2.263   2.263   2.263   2.263   2.263   2.263   2.263   2.263   2.263   2.263   2.263   2.263   2.263   2.263   2.263   2.263   2.263   2.263   2.263   2.263   2.263   2.263   2.263   2.263   2.263   2.263   2.263   2.263   2.263   2.263   2.263   2.263   2.263   2.263   2.263   2.263   2.263   2.263   2.263
    74.00    2.263   2.263   2.263   2.263   2.263   2.263   2.263   2.263   2.263   2.263   2.263   2.263   2.263   2.263   2.263   2.263   2.263   2.263   2.263   2.263   2.263   2.263   2.263   2.263   2.263   2.263   2.263   2.263   2.263   2.263   2.263   2.263   2.263   2.263   2.263   2.263   2.263   2.263   2.263   2.263   2.263   2.263   2.263   2.263   2.263   2.263   2.263   2.263   2.263   2.263   2.263   2.263   2.263   2.263   2.263   2.263
    70.00    2.263   2.263   2.263   2.263   2.263   2.263   2.263   2.263   2.263   2.263   2.263   2.263   2.263   2.263   2.263   2.263   2.263   2.263   2.263   2.263   2.263   2.263   2.263   2.263   2.263   2.263   2.263   2.263   2.263   2.263   2.263   2.263   2.263   2.263   2.263   2.263   2.263   2.263   2.263   2.263   2.263   2.263   2.263   2.263   2.263   2.263   2.263   2.263   2.263   2.263   2.263   2.263   2.263   2.263   2.263   2.263
    66.00    2.263   2.263   2.263   2.263   2.263   2.263   2.263   2.263   2.263   2.263   2.263   2.263   2.263   2.263   2.263   2.263   2.263   2.263   2.263   2.263   2.263   2.263   2.263   2.263   2.263   2.263   2.263   2.263   2.263   2.263   2.263   2.263   2.263   2.263   2.263   2.263   2.263   2.263   2.263   2.263   2.263   2.263   2.263   2.263   2.263   2.263   2.263   2.263   2.263   2.263   2.263   2.263   2.263   2.263   2.263   2.263
    62.00    2.263   2.263   2.263   2.263   2.263   2.263   2.263   2.263   2.263   2.263   2.263   2.263   2.263   2.263   2.263   2.263   2.263   2.263   2.263   2.263   2.263   2.263   2.263   2.263   2.263   2.263   2.263   2.263   2.263   2.263   2.263   2.263   2.263   2.263   2.263   2.263   2.263   2.263   2.263   2.263   2.263   2.263   2.263   2.263   2.263   2.263   2.263   2.263   2.263   2.263   2.263   2.263   2.263   2.263   2.263   2.263
    58.00    2.263   2.263   2.263   2.263   2.263   2.263   2.263   2.263   2.263   2.263   2.263   2.263   2.263   2.263   2.263   2.263   2.263   2.263   2.263   2.263   2.263   2.263   2.263   2.263   2.263   2.263   2.263   2.263   2.263   2.263   2.263   2.263   2.263   2.263   2.263   2.263   2.263   2.263   2.263   2.263   2.263   2.263   2.263   2.263   2.263   2.263   2.263   2.263   2.263   2.263   2.263   2.263   2.263   2.263   2.263   2.263
    54.00    2.263   2.263   2.263   2.263   2.263   2.263   2.263   2.263   2.263   2.263   2.263   2.263   2.263   2.263   2.263   2.263   2.263   2.263   2.263   2.263   2.263   2.263   2.263   2.263   2.263   2.263   2.263   2.263   2.263   2.263   2.263   2.263   2.263   2.263   2.263   2.263   2.263   2.263   2.263   2.263   2.263   2.263   2.263   2.263   2.263   2.263   2.263   2.263   2.263   2.263   2.263   2.263   2.263   2.263   2.263   2.263
    50.00    2.263   2.263   2.263   2.263   2.263   2.263   2.263   2.263   2.263   2.263   2.263   2.263   2.263   2.263   2.263   2.263   2.263   2.263   2.263   2.263   2.263   2.263   2.263   2.263   2.263   2.263   2.263   2.263   2.263   2.263   2.263   2.263   2.263   2.263   2.263   2.263   2.263   2.263   2.263   2.263   2.263   2.263   2.263   2.263   2.263   2.263   2.263   2.263   2.263   2.263   2.263   2.263   2.263   2.263   2.263   2.263
    46.00    2.263   2.263   2.263   2.263   2.263   2.263   2.263   2.263   2.263   2.263   2.263   2.263   2.263   2.263   2.263   2.263   2.263   2.263   2.263   2.263   2.263   2.263   2.263   2.263   2.263   2.263   2.263   2.263   2.263   2.263   2.263   2.263   2.263   2.263   2.263   2.263   2.263   2.263   2.263   2.263   2.263   2.263   2.263   2.263   2.263   2.263   2.263   2.263   2.263   2.263   2.263   2.263   2.263   2.263   2.263   2.263
    42.00    2.263   2.263   2.263   2.263   2.263   2.263   2.263   2.263   2.263   2.263   2.263   2.263   2.263   2.263   2.263   2.263   2.263   2.263   2.263   2.263   2.263   2.263   2.263   2.263   2.263   2.263   2.263   2.263   2.263   2.263   2.263   2.263   2.263   2.263   2.263   2.263   2.263   2.263   2.263   2.263   2.263   2.263   2.263   2.263   2.263   2.263   2.263   2.263   2.263   2.263   2.263   2.263   2.263   2.263   2.263   2.263
    38.00    2.263   2.263   2.263   2.263   2.263   2.263   2.263   2.263   2.263   2.263   2.263   2.263   2.263   2.263   2.263   2.263   2.263   2.263   2.263   2.263   2.263   2.263   2.263   2.263   2.263   2.263   2.263   2.263   2.263   2.263   2.263   2.263   2.263   2.263   2.263   2.263   2.263   2.263   2.263   2.263   2.263   2.263   2.263   2.263   2.263   2.263   2.263   2.263   2.263   2.263   2.263   2.263   2.263   2.263   2.263   2.263
    34.00    2.263   2.263   2.263   2.263   2.263   2.263   2.263   2.263   2.263   2.263   2.263   2.263   2.263   2.263   2.263   2.263   2.263   2.263   2.263   2.263   2.263   2.263   2.263   2.263   2.263   2.263   2.263   2.263   2.263   2.263   2.263   2.263   2.263   2.263   2.263   2.263   2.263   2.263   2.263   2.263   2.263   2.263   2.263   2.263   2.263   2.263   2.263   2.263   2.263   2.263   2.263   2.263   2.263   2.263   2.263   2.263
    30.00    2.263   2.263   2.263   2.263   2.263   2.263   2.263   2.263   2.263   2.263   2.263   2.263   2.263   2.263   2.263   2.263   2.263   2.263   2.263   2.263   2.263   2.263   2.263   2.263   2.263   2.263   2.263   2.263   2.263   2.263   2.263   2.263   2.263   2.263   2.263   2.263   2.263   2.263   2.263   2.263   2.263   2.263   2.263   2.263   2.263   2.263   2.263   2.263   2.263   2.263   2.263   2.263   2.263   2.263   2.263   2.263

   Mean standard deviation across all grid points:
      u component:    4.282 m/s
      v component:    3.700 m/s
      w component:    2.263 m/s


U-component (X) statistics from the interpolated hub point:

   Mean =  37.4994 m/s
   TI   =  10.2932 %

Nyquist frequency of turbulent wind field =        10.000 Hz


Processing complete.  6123.6 CPU seconds used.
