
This summary file was generated by TurbSim (v1.50, 25-Sep-2009) on 15-Nov-2024 at 23:59:34.

