
This summary file was generated by TurbSim (v1.50, 25-Sep-2009) on 19-Oct-2024 at 16:07:06.


Runtime Options:

   2318573  Random seed #1
    RANLUX  Type of random number generator
         F  Output binary HH turbulence parameters?
         F  Output formatted turbulence parameters?
         F  Output AeroDyn HH files?
         T  Output AeroDyn FF files?
         T  Output BLADED FF files?
         F  Output tower data?
         F  Output formatted FF files?
         F  Output coherent turbulence time step file?
         T  Clockwise rotation when looking downwind?
 0 -  NONE  IEC turbulence models scaled to exact specified standard deviation


Turbine/Model Specifications:

        31  Vertical grid-point matrix dimension
        31  Horizontal grid-point matrix dimension
     0.050  Time step [seconds]
   600.000  Analysis time [seconds]
    80.000  Usable output time [seconds]
   140.000  Hub height [m]
   270.000  Grid height [m]
   270.000  Grid width [m]
     0.000  Vertical flow angle [degrees]
     0.000  Horizontal flow angle [degrees]


Meteorological Boundary Conditions:

    IECKAI  IEC Kaimal spectral model
         1  IEC standard: IEC 61400-1 Ed. 3: 2005
         B  IEC turbulence characteristic
     3EWM1  IEC Extreme 1-Year Wind Speed Model
       N/A  IEC Extreme Turbulence Model (ETM) "c" parameter [m/s]
       IEC  Wind profile type
   140.000  Reference height [m]
       N/A  Reference wind speed [m/s]
       N/A  Jet height [m]
       N/A  Power law exponent
     0.030  Surface roughness length [m]


You have requested that the following file(s) be generated:

   .\TurbSim.bts (AeroDyn/TurbSim full-field wind file)
   .\TurbSim.wnd (AeroDyn/BLADED full-field wnd file)


Turbulence Simulation Scaling Parameter Summary:

   Turbulence model used                            =  IEC Kaimal
   Turbulence characteristic                        =  3B
   IEC turbulence type                              =  Extreme 1-Year Wind Speed Model
   Reference wind speed average over 10 minutes     =   37.500 m/s
   Annual wind speed average at hub height          =    7.500 m/s
   IEC standard                                     =  IEC 61400-1 Ed. 3: 2005
   Mean wind speed at hub height                    =   30.000 m/s
   Expected value of turbulence intensity at 15 m/s =   14.000%
   Characteristic value of standard deviation       =    3.300 m/s
   Turbulence scale                                 =   42.000 m
   u-component integral scale                       =  340.200 m
   Coherency scale                                  =  340.200 m
   Characteristic value of hub turbulence intensity =   11.000%
   Gradient Richardson number                       =    0.000

   Wind profile type                                =  Power law on rotor disk, logarithmic elsewhere
   Power law exponent                               =    0.110
   Mean shear across rotor disk                     =    0.043 (m/s)/m
   Assumed rotor diameter                           =  270.000 m
   Surface roughness length                         =    0.030 m

   Number of time steps in the FFT                  =    12000
   Number of time steps output                      =     1780


Mean Flow Angles:

   Vertical   =   0.0 degrees
   Horizontal =   0.0 degrees

Mean Wind Speed Profile:

   Height    Wind Speed   Horizontal Angle  U-comp (X)   V-comp (Y)   W-comp (Z)
     (m)        (m/s)         (degrees)       (m/s)        (m/s)        (m/s)   
   ------    ----------   ----------------  ----------   ----------   ----------
    275.0       32.31            0.00         32.31         0.00         0.00
    266.0       32.19            0.00         32.19         0.00         0.00
    257.0       32.07            0.00         32.07         0.00         0.00
    248.0       31.95            0.00         31.95         0.00         0.00
    239.0       31.82            0.00         31.82         0.00         0.00
    230.0       31.68            0.00         31.68         0.00         0.00
    221.0       31.54            0.00         31.54         0.00         0.00
    212.0       31.40            0.00         31.40         0.00         0.00
    203.0       31.25            0.00         31.25         0.00         0.00
    194.0       31.10            0.00         31.10         0.00         0.00
    185.0       30.93            0.00         30.93         0.00         0.00
    176.0       30.76            0.00         30.76         0.00         0.00
    167.0       30.59            0.00         30.59         0.00         0.00
    158.0       30.40            0.00         30.40         0.00         0.00
    149.0       30.21            0.00         30.21         0.00         0.00
    140.0       30.00            0.00         30.00         0.00         0.00
    131.0       29.78            0.00         29.78         0.00         0.00
    122.0       29.55            0.00         29.55         0.00         0.00
    113.0       29.30            0.00         29.30         0.00         0.00
    104.0       29.03            0.00         29.03         0.00         0.00
     95.0       28.75            0.00         28.75         0.00         0.00
     86.0       28.43            0.00         28.43         0.00         0.00
     77.0       28.09            0.00         28.09         0.00         0.00
     68.0       27.71            0.00         27.71         0.00         0.00
     59.0       27.28            0.00         27.28         0.00         0.00
     50.0       26.79            0.00         26.79         0.00         0.00
     41.0       26.21            0.00         26.21         0.00         0.00
     32.0       25.50            0.00         25.50         0.00         0.00
     23.0       24.59            0.00         24.59         0.00         0.00
     14.0       23.29            0.00         23.29         0.00         0.00
      5.0       20.79            0.00         20.79         0.00         0.00


Harvested Random Seeds after Generation of the Random Numbers:

    160727250 K1
            0 K2


Hub-Height Simulated Turbulence Statistical Summary:

   Type of Wind        Min (m/s)   Mean (m/s)    Max (m/s)  Sigma (m/s)       TI (%)
   ----------------    ---------   ----------    ---------  -----------       ------
   Longitudinal (u)        18.62        30.00        40.74        3.018       10.059
   Lateral (v)             -9.11         0.00        11.37        2.588        8.625
   Vertical (w)            -5.66         0.00         5.93        1.590        5.301
   U component             18.62        30.00        40.74        3.018       10.059
   V component             -9.11         0.00        11.37        2.588        8.625
   W component             -5.66         0.00         5.93        1.590        5.301
   Horizontal (U&V)        18.75        30.11        40.87        3.010        9.996
   Total                   18.78        30.15        40.89        3.008        9.977

                       Min Reynolds     Mean Reynolds    Max Reynolds    Correlation
   Product             Stress (m/s)^2   Stress (m/s)^2   Stress (m/s)^2  Coefficient
   ----------------    --------------   --------------   --------------  -----------
   u'w'                    -37.389            -0.039            27.114        -0.008
   u'v'                    -52.167            -0.556            39.188        -0.071
   v'w'                    -31.988             0.044            49.558         0.011


   Friction Velocity (Ustar)  =      0.196 m/s
   Maximum Instantaneous TKE  =     76.522 (m/s)^2
   Maximum Instantaneous CTKE =     28.112 (m/s)^2


Grid Point Variance Summary:

   Y-coord -135.00 -126.00 -117.00 -108.00  -99.00  -90.00  -81.00  -72.00  -63.00  -54.00  -45.00  -36.00  -27.00  -18.00   -9.00    0.00    9.00   18.00   27.00   36.00   45.00   54.00   63.00   72.00   81.00   90.00   99.00  108.00  117.00  126.00  135.00

   Height   Standard deviation at grid points for the u component:
   275.00    3.515   3.386   3.395   3.426   3.376   3.490   3.507   3.485   3.469   3.424   3.419   3.557   3.606   3.578   3.486   3.293   3.342   3.310   3.288   3.207   3.434   3.326   3.070   3.133   2.930   2.884   2.818   2.891   2.854   3.018   3.148
   266.00    3.418   3.285   3.456   3.388   3.475   3.387   3.556   3.540   3.463   3.670   3.491   3.328   3.381   3.358   3.421   3.476   3.364   3.285   3.287   3.290   3.361   3.267   3.150   3.134   3.015   3.041   2.850   2.945   2.957   2.957   2.985
   257.00    3.337   3.473   3.408   3.445   3.514   3.551   3.594   3.633   3.519   3.538   3.495   3.503   3.382   3.273   3.176   3.196   3.234   3.404   3.251   3.275   3.420   3.317   3.197   3.110   3.266   3.136   3.072   2.912   2.950   2.903   3.013
   248.00    3.433   3.506   3.576   3.598   3.608   3.648   3.467   3.600   3.572   3.526   3.383   3.474   3.333   3.313   3.113   3.251   3.163   3.294   3.288   3.240   3.315   3.272   3.176   3.201   3.138   3.160   3.030   3.071   2.926   3.101   3.041
   239.00    3.400   3.438   3.477   3.543   3.502   3.464   3.586   3.675   3.566   3.493   3.363   3.374   3.248   3.378   3.254   3.153   3.206   3.291   3.166   3.182   3.193   3.138   3.081   3.133   3.191   3.089   2.950   2.947   3.010   3.030   3.045
   230.00    3.510   3.608   3.595   3.612   3.690   3.598   3.476   3.497   3.483   3.535   3.416   3.314   3.363   3.250   3.266   3.145   3.243   3.233   3.212   3.206   3.233   3.193   3.121   2.986   3.075   3.014   2.996   2.994   2.983   3.018   2.990
   221.00    3.655   3.760   3.783   3.718   3.737   3.585   3.531   3.347   3.444   3.488   3.422   3.461   3.300   3.383   3.334   3.316   3.178   3.272   3.298   3.215   3.400   3.110   3.131   2.997   2.985   3.043   3.082   3.101   2.903   2.993   2.932
   212.00    4.043   4.028   3.913   3.779   3.804   3.559   3.575   3.478   3.534   3.344   3.535   3.532   3.423   3.416   3.309   3.236   3.171   3.008   3.087   3.204   3.127   3.163   2.987   2.933   2.951   2.971   3.065   3.022   3.043   3.088   3.138
   203.00    3.880   3.980   3.846   3.816   3.662   3.637   3.640   3.581   3.510   3.508   3.360   3.492   3.421   3.468   3.378   3.341   3.261   3.173   3.033   3.019   2.907   3.008   2.935   2.966   2.786   2.937   3.104   3.135   2.981   3.040   3.111
   194.00    3.873   3.808   3.780   3.661   3.619   3.807   3.649   3.718   3.511   3.489   3.306   3.292   3.225   3.264   3.120   3.109   3.069   3.051   2.977   2.927   2.959   2.956   2.876   2.778   2.901   2.980   3.133   3.107   2.920   2.902   3.040
   185.00    3.794   3.736   3.607   3.564   3.623   3.643   3.739   3.636   3.567   3.478   3.367   3.331   3.325   3.100   3.075   3.018   3.015   2.953   2.914   2.981   3.078   2.815   2.862   2.908   2.780   2.900   3.002   3.137   3.010   2.990   2.952
   176.00    3.779   3.754   3.626   3.577   3.548   3.607   3.638   3.545   3.528   3.452   3.283   3.232   3.133   3.207   3.093   3.054   3.030   3.039   3.142   3.007   3.133   2.894   2.924   2.829   2.780   2.961   2.873   2.957   2.955   2.987   3.094
   167.00    3.645   3.622   3.636   3.692   3.490   3.500   3.546   3.480   3.586   3.478   3.447   3.300   3.171   3.136   3.023   3.149   3.097   3.153   3.155   2.954   3.106   2.969   2.856   2.960   2.754   2.923   2.869   2.980   3.107   3.046   3.018
   158.00    3.462   3.656   3.607   3.709   3.438   3.575   3.619   3.605   3.561   3.531   3.539   3.371   3.255   3.004   3.124   3.148   3.168   3.196   3.078   3.023   3.080   2.907   2.812   2.820   2.877   2.973   2.978   3.018   3.045   2.876   2.868
   149.00    3.432   3.596   3.597   3.545   3.495   3.572   3.571   3.584   3.548   3.534   3.469   3.403   3.242   3.078   3.065   3.080   3.060   3.110   3.108   3.263   3.108   2.918   2.887   2.796   2.952   3.165   2.980   2.942   3.028   2.935   2.894
   140.00    3.511   3.617   3.636   3.618   3.547   3.594   3.660   3.622   3.558   3.520   3.412   3.474   3.179   3.168   3.168   3.018   3.008   3.040   3.238   3.186   3.038   3.041   2.826   2.913   3.023   3.133   3.104   3.089   3.062   2.895   3.039
   131.00    3.702   3.668   3.722   3.796   3.709   3.887   3.674   3.521   3.532   3.513   3.485   3.330   3.376   3.334   3.159   3.083   3.112   3.147   3.089   3.097   3.003   2.870   2.887   2.961   3.027   3.214   3.084   3.127   2.980   2.979   2.909
   122.00    3.659   3.735   3.730   3.715   3.817   3.742   3.829   3.852   3.546   3.548   3.536   3.363   3.296   3.197   3.116   3.065   3.108   3.110   3.092   2.987   2.989   2.834   3.035   3.026   3.095   3.027   3.073   3.038   3.093   3.018   2.995
   113.00    3.717   3.753   3.780   3.733   3.726   3.723   3.710   3.757   3.547   3.549   3.563   3.358   3.153   3.076   2.996   3.170   3.179   3.160   3.116   3.085   3.009   2.957   3.047   3.119   3.116   3.078   3.072   3.102   3.119   3.115   3.145
   104.00    3.674   3.651   3.703   3.704   3.675   3.597   3.733   3.697   3.590   3.594   3.595   3.392   3.272   3.034   3.105   3.146   3.292   3.327   3.178   3.180   3.056   2.903   3.008   3.066   3.105   3.093   3.007   2.994   2.980   3.141   3.137
    95.00    3.624   3.695   3.760   3.631   3.537   3.558   3.710   3.781   3.741   3.588   3.557   3.433   3.305   3.330   3.224   3.296   3.420   3.344   3.300   3.184   2.999   3.024   3.065   3.121   3.132   3.245   3.165   2.934   2.960   3.091   3.263
    86.00    3.419   3.572   3.626   3.649   3.578   3.412   3.396   3.584   3.768   3.625   3.651   3.510   3.343   3.284   3.282   3.190   3.281   3.227   3.178   3.194   3.154   3.148   3.046   3.065   3.137   3.140   3.168   2.997   3.054   2.993   3.069
    77.00    3.382   3.499   3.464   3.527   3.588   3.457   3.503   3.767   3.574   3.643   3.649   3.571   3.508   3.356   3.253   3.216   3.212   3.171   3.092   3.008   3.068   3.059   3.023   3.124   3.007   2.900   3.011   3.049   3.112   3.059   3.066
    68.00    3.335   3.338   3.316   3.308   3.508   3.521   3.649   3.730   3.630   3.693   3.617   3.540   3.482   3.512   3.390   3.248   3.185   3.237   3.148   3.112   3.106   3.077   3.084   2.982   3.045   3.091   2.933   2.986   3.069   2.987   3.037
    59.00    3.227   3.195   3.078   3.141   3.280   3.582   3.698   3.576   3.549   3.532   3.497   3.301   3.360   3.350   3.170   3.303   3.252   3.163   3.106   3.214   3.166   3.010   3.077   3.175   2.989   2.968   2.892   2.934   3.019   3.122   3.228
    50.00    3.210   3.081   2.955   3.008   3.135   3.437   3.420   3.626   3.474   3.361   3.415   3.333   3.229   3.247   3.140   3.330   3.198   3.173   3.178   3.150   3.134   3.192   3.115   3.004   2.964   2.978   3.192   3.068   3.220   3.226   3.243
    41.00    2.944   3.054   3.035   3.084   3.224   3.313   3.499   3.356   3.371   3.282   3.330   3.208   3.272   3.180   3.237   3.351   3.151   3.255   3.259   3.167   3.166   3.069   3.216   3.069   3.054   3.018   2.995   3.167   3.162   3.186   3.237
    32.00    2.975   3.062   2.954   3.144   3.157   3.374   3.382   3.157   3.190   3.338   3.363   3.252   3.100   3.150   3.322   3.412   3.310   3.416   3.284   3.160   3.173   3.112   3.169   3.007   2.778   2.927   2.896   3.093   3.206   3.195   3.175
    23.00    3.055   3.157   3.059   3.295   3.489   3.362   3.228   3.154   3.156   3.247   3.308   3.313   3.296   3.354   3.394   3.581   3.468   3.332   3.296   3.083   3.148   3.038   3.168   3.091   2.899   2.925   2.953   3.089   3.169   3.137   3.203
    14.00    3.101   3.121   3.176   3.377   3.337   3.305   3.296   3.035   3.186   3.285   3.457   3.353   3.330   3.299   3.302   3.374   3.326   3.331   3.272   3.162   3.127   3.150   3.259   3.028   2.923   2.870   3.107   3.114   3.047   2.965   3.192
     5.00    3.217   3.133   3.281   3.214   3.214   3.269   3.348   3.221   3.169   3.390   3.427   3.466   3.367   3.208   3.279   3.247   3.255   3.307   3.277   3.152   3.110   3.203   3.204   2.895   2.815   3.085   3.032   3.080   3.014   2.986   3.083

   Height   Standard deviation at grid points for the v component:
   275.00    2.588   2.588   2.588   2.588   2.588   2.588   2.588   2.588   2.588   2.588   2.588   2.588   2.588   2.588   2.588   2.588   2.588   2.588   2.588   2.588   2.588   2.588   2.588   2.588   2.588   2.588   2.588   2.588   2.588   2.588   2.588
   266.00    2.588   2.588   2.588   2.588   2.588   2.588   2.588   2.588   2.588   2.588   2.588   2.588   2.588   2.588   2.588   2.588   2.588   2.588   2.588   2.588   2.588   2.588   2.588   2.588   2.588   2.588   2.588   2.588   2.588   2.588   2.588
   257.00    2.588   2.588   2.588   2.588   2.588   2.588   2.588   2.588   2.588   2.588   2.588   2.588   2.588   2.588   2.588   2.588   2.588   2.588   2.588   2.588   2.588   2.588   2.588   2.588   2.588   2.588   2.588   2.588   2.588   2.588   2.588
   248.00    2.588   2.588   2.588   2.588   2.588   2.588   2.588   2.588   2.588   2.588   2.588   2.588   2.588   2.588   2.588   2.588   2.588   2.588   2.588   2.588   2.588   2.588   2.588   2.588   2.588   2.588   2.588   2.588   2.588   2.588   2.588
   239.00    2.588   2.588   2.588   2.588   2.588   2.588   2.588   2.588   2.588   2.588   2.588   2.588   2.588   2.588   2.588   2.588   2.588   2.588   2.588   2.588   2.588   2.588   2.588   2.588   2.588   2.588   2.588   2.588   2.588   2.588   2.588
   230.00    2.588   2.588   2.588   2.588   2.588   2.588   2.588   2.588   2.588   2.588   2.588   2.588   2.588   2.588   2.588   2.588   2.588   2.588   2.588   2.588   2.588   2.588   2.588   2.588   2.588   2.588   2.588   2.588   2.588   2.588   2.588
   221.00    2.588   2.588   2.588   2.588   2.588   2.588   2.588   2.588   2.588   2.588   2.588   2.588   2.588   2.588   2.588   2.588   2.588   2.588   2.588   2.588   2.588   2.588   2.588   2.588   2.588   2.588   2.588   2.588   2.588   2.588   2.588
   212.00    2.588   2.588   2.588   2.588   2.588   2.588   2.588   2.588   2.588   2.588   2.588   2.588   2.588   2.588   2.588   2.588   2.588   2.588   2.588   2.588   2.588   2.588   2.588   2.588   2.588   2.588   2.588   2.588   2.588   2.588   2.588
   203.00    2.588   2.588   2.588   2.588   2.588   2.588   2.588   2.588   2.588   2.588   2.588   2.588   2.588   2.588   2.588   2.588   2.588   2.588   2.588   2.588   2.588   2.588   2.588   2.588   2.588   2.588   2.588   2.588   2.588   2.588   2.588
   194.00    2.588   2.588   2.588   2.588   2.588   2.588   2.588   2.588   2.588   2.588   2.588   2.588   2.588   2.588   2.588   2.588   2.588   2.588   2.588   2.588   2.588   2.588   2.588   2.588   2.588   2.588   2.588   2.588   2.588   2.588   2.588
   185.00    2.588   2.588   2.588   2.588   2.588   2.588   2.588   2.588   2.588   2.588   2.588   2.588   2.588   2.588   2.588   2.588   2.588   2.588   2.588   2.588   2.588   2.588   2.588   2.588   2.588   2.588   2.588   2.588   2.588   2.588   2.588
   176.00    2.588   2.588   2.588   2.588   2.588   2.588   2.588   2.588   2.588   2.588   2.588   2.588   2.588   2.588   2.588   2.588   2.588   2.588   2.588   2.588   2.588   2.588   2.588   2.588   2.588   2.588   2.588   2.588   2.588   2.588   2.588
   167.00    2.588   2.588   2.588   2.588   2.588   2.588   2.588   2.588   2.588   2.588   2.588   2.588   2.588   2.588   2.588   2.588   2.588   2.588   2.588   2.588   2.588   2.588   2.588   2.588   2.588   2.588   2.588   2.588   2.588   2.588   2.588
   158.00    2.588   2.588   2.588   2.588   2.588   2.588   2.588   2.588   2.588   2.588   2.588   2.588   2.588   2.588   2.588   2.588   2.588   2.588   2.588   2.588   2.588   2.588   2.588   2.588   2.588   2.588   2.588   2.588   2.588   2.588   2.588
   149.00    2.588   2.588   2.588   2.588   2.588   2.588   2.588   2.588   2.588   2.588   2.588   2.588   2.588   2.588   2.588   2.588   2.588   2.588   2.588   2.588   2.588   2.588   2.588   2.588   2.588   2.588   2.588   2.588   2.588   2.588   2.588
   140.00    2.588   2.588   2.588   2.588   2.588   2.588   2.588   2.588   2.588   2.588   2.588   2.588   2.588   2.588   2.588   2.588   2.588   2.588   2.588   2.588   2.588   2.588   2.588   2.588   2.588   2.588   2.588   2.588   2.588   2.588   2.588
   131.00    2.588   2.588   2.588   2.588   2.588   2.588   2.588   2.588   2.588   2.588   2.588   2.588   2.588   2.588   2.588   2.588   2.588   2.588   2.588   2.588   2.588   2.588   2.588   2.588   2.588   2.588   2.588   2.588   2.588   2.588   2.588
   122.00    2.588   2.588   2.588   2.588   2.588   2.588   2.588   2.588   2.588   2.588   2.588   2.588   2.588   2.588   2.588   2.588   2.588   2.588   2.588   2.588   2.588   2.588   2.588   2.588   2.588   2.588   2.588   2.588   2.588   2.588   2.588
   113.00    2.588   2.588   2.588   2.588   2.588   2.588   2.588   2.588   2.588   2.588   2.588   2.588   2.588   2.588   2.588   2.588   2.588   2.588   2.588   2.588   2.588   2.588   2.588   2.588   2.588   2.588   2.588   2.588   2.588   2.588   2.588
   104.00    2.588   2.588   2.588   2.588   2.588   2.588   2.588   2.588   2.588   2.588   2.588   2.588   2.588   2.588   2.588   2.588   2.588   2.588   2.588   2.588   2.588   2.588   2.588   2.588   2.588   2.588   2.588   2.588   2.588   2.588   2.588
    95.00    2.588   2.588   2.588   2.588   2.588   2.588   2.588   2.588   2.588   2.588   2.588   2.588   2.588   2.588   2.588   2.588   2.588   2.588   2.588   2.588   2.588   2.588   2.588   2.588   2.588   2.588   2.588   2.588   2.588   2.588   2.588
    86.00    2.588   2.588   2.588   2.588   2.588   2.588   2.588   2.588   2.588   2.588   2.588   2.588   2.588   2.588   2.588   2.588   2.588   2.588   2.588   2.588   2.588   2.588   2.588   2.588   2.588   2.588   2.588   2.588   2.588   2.588   2.588
    77.00    2.588   2.588   2.588   2.588   2.588   2.588   2.588   2.588   2.588   2.588   2.588   2.588   2.588   2.588   2.588   2.588   2.588   2.588   2.588   2.588   2.588   2.588   2.588   2.588   2.588   2.588   2.588   2.588   2.588   2.588   2.588
    68.00    2.588   2.588   2.588   2.588   2.588   2.588   2.588   2.588   2.588   2.588   2.588   2.588   2.588   2.588   2.588   2.588   2.588   2.588   2.588   2.588   2.588   2.588   2.588   2.588   2.588   2.588   2.588   2.588   2.588   2.588   2.588
    59.00    2.588   2.588   2.588   2.588   2.588   2.588   2.588   2.588   2.588   2.588   2.588   2.588   2.588   2.588   2.588   2.588   2.588   2.588   2.588   2.588   2.588   2.588   2.588   2.588   2.588   2.588   2.588   2.588   2.588   2.588   2.588
    50.00    2.588   2.588   2.588   2.588   2.588   2.588   2.588   2.588   2.588   2.588   2.588   2.588   2.588   2.588   2.588   2.588   2.588   2.588   2.588   2.588   2.588   2.588   2.588   2.588   2.588   2.588   2.588   2.588   2.588   2.588   2.588
    41.00    2.588   2.588   2.588   2.588   2.588   2.588   2.588   2.588   2.588   2.588   2.588   2.588   2.588   2.588   2.588   2.588   2.588   2.588   2.588   2.588   2.588   2.588   2.588   2.588   2.588   2.588   2.588   2.588   2.588   2.588   2.588
    32.00    2.588   2.588   2.588   2.588   2.588   2.588   2.588   2.588   2.588   2.588   2.588   2.588   2.588   2.588   2.588   2.588   2.588   2.588   2.588   2.588   2.588   2.588   2.588   2.588   2.588   2.588   2.588   2.588   2.588   2.588   2.588
    23.00    2.588   2.588   2.588   2.588   2.588   2.588   2.588   2.588   2.588   2.588   2.588   2.588   2.588   2.588   2.588   2.588   2.588   2.588   2.588   2.588   2.588   2.588   2.588   2.588   2.588   2.588   2.588   2.588   2.588   2.588   2.588
    14.00    2.588   2.588   2.588   2.588   2.588   2.588   2.588   2.588   2.588   2.588   2.588   2.588   2.588   2.588   2.588   2.588   2.588   2.588   2.588   2.588   2.588   2.588   2.588   2.588   2.588   2.588   2.588   2.588   2.588   2.588   2.588
     5.00    2.588   2.588   2.588   2.588   2.588   2.588   2.588   2.588   2.588   2.588   2.588   2.588   2.588   2.588   2.588   2.588   2.588   2.588   2.588   2.588   2.588   2.588   2.588   2.588   2.588   2.588   2.588   2.588   2.588   2.588   2.588

   Height   Standard deviation at grid points for the w component:
   275.00    1.590   1.590   1.590   1.590   1.590   1.590   1.590   1.590   1.590   1.590   1.590   1.590   1.590   1.590   1.590   1.590   1.590   1.590   1.590   1.590   1.590   1.590   1.590   1.590   1.590   1.590   1.590   1.590   1.590   1.590   1.590
   266.00    1.590   1.590   1.590   1.590   1.590   1.590   1.590   1.590   1.590   1.590   1.590   1.590   1.590   1.590   1.590   1.590   1.590   1.590   1.590   1.590   1.590   1.590   1.590   1.590   1.590   1.590   1.590   1.590   1.590   1.590   1.590
   257.00    1.590   1.590   1.590   1.590   1.590   1.590   1.590   1.590   1.590   1.590   1.590   1.590   1.590   1.590   1.590   1.590   1.590   1.590   1.590   1.590   1.590   1.590   1.590   1.590   1.590   1.590   1.590   1.590   1.590   1.590   1.590
   248.00    1.590   1.590   1.590   1.590   1.590   1.590   1.590   1.590   1.590   1.590   1.590   1.590   1.590   1.590   1.590   1.590   1.590   1.590   1.590   1.590   1.590   1.590   1.590   1.590   1.590   1.590   1.590   1.590   1.590   1.590   1.590
   239.00    1.590   1.590   1.590   1.590   1.590   1.590   1.590   1.590   1.590   1.590   1.590   1.590   1.590   1.590   1.590   1.590   1.590   1.590   1.590   1.590   1.590   1.590   1.590   1.590   1.590   1.590   1.590   1.590   1.590   1.590   1.590
   230.00    1.590   1.590   1.590   1.590   1.590   1.590   1.590   1.590   1.590   1.590   1.590   1.590   1.590   1.590   1.590   1.590   1.590   1.590   1.590   1.590   1.590   1.590   1.590   1.590   1.590   1.590   1.590   1.590   1.590   1.590   1.590
   221.00    1.590   1.590   1.590   1.590   1.590   1.590   1.590   1.590   1.590   1.590   1.590   1.590   1.590   1.590   1.590   1.590   1.590   1.590   1.590   1.590   1.590   1.590   1.590   1.590   1.590   1.590   1.590   1.590   1.590   1.590   1.590
   212.00    1.590   1.590   1.590   1.590   1.590   1.590   1.590   1.590   1.590   1.590   1.590   1.590   1.590   1.590   1.590   1.590   1.590   1.590   1.590   1.590   1.590   1.590   1.590   1.590   1.590   1.590   1.590   1.590   1.590   1.590   1.590
   203.00    1.590   1.590   1.590   1.590   1.590   1.590   1.590   1.590   1.590   1.590   1.590   1.590   1.590   1.590   1.590   1.590   1.590   1.590   1.590   1.590   1.590   1.590   1.590   1.590   1.590   1.590   1.590   1.590   1.590   1.590   1.590
   194.00    1.590   1.590   1.590   1.590   1.590   1.590   1.590   1.590   1.590   1.590   1.590   1.590   1.590   1.590   1.590   1.590   1.590   1.590   1.590   1.590   1.590   1.590   1.590   1.590   1.590   1.590   1.590   1.590   1.590   1.590   1.590
   185.00    1.590   1.590   1.590   1.590   1.590   1.590   1.590   1.590   1.590   1.590   1.590   1.590   1.590   1.590   1.590   1.590   1.590   1.590   1.590   1.590   1.590   1.590   1.590   1.590   1.590   1.590   1.590   1.590   1.590   1.590   1.590
   176.00    1.590   1.590   1.590   1.590   1.590   1.590   1.590   1.590   1.590   1.590   1.590   1.590   1.590   1.590   1.590   1.590   1.590   1.590   1.590   1.590   1.590   1.590   1.590   1.590   1.590   1.590   1.590   1.590   1.590   1.590   1.590
   167.00    1.590   1.590   1.590   1.590   1.590   1.590   1.590   1.590   1.590   1.590   1.590   1.590   1.590   1.590   1.590   1.590   1.590   1.590   1.590   1.590   1.590   1.590   1.590   1.590   1.590   1.590   1.590   1.590   1.590   1.590   1.590
   158.00    1.590   1.590   1.590   1.590   1.590   1.590   1.590   1.590   1.590   1.590   1.590   1.590   1.590   1.590   1.590   1.590   1.590   1.590   1.590   1.590   1.590   1.590   1.590   1.590   1.590   1.590   1.590   1.590   1.590   1.590   1.590
   149.00    1.590   1.590   1.590   1.590   1.590   1.590   1.590   1.590   1.590   1.590   1.590   1.590   1.590   1.590   1.590   1.590   1.590   1.590   1.590   1.590   1.590   1.590   1.590   1.590   1.590   1.590   1.590   1.590   1.590   1.590   1.590
   140.00    1.590   1.590   1.590   1.590   1.590   1.590   1.590   1.590   1.590   1.590   1.590   1.590   1.590   1.590   1.590   1.590   1.590   1.590   1.590   1.590   1.590   1.590   1.590   1.590   1.590   1.590   1.590   1.590   1.590   1.590   1.590
   131.00    1.590   1.590   1.590   1.590   1.590   1.590   1.590   1.590   1.590   1.590   1.590   1.590   1.590   1.590   1.590   1.590   1.590   1.590   1.590   1.590   1.590   1.590   1.590   1.590   1.590   1.590   1.590   1.590   1.590   1.590   1.590
   122.00    1.590   1.590   1.590   1.590   1.590   1.590   1.590   1.590   1.590   1.590   1.590   1.590   1.590   1.590   1.590   1.590   1.590   1.590   1.590   1.590   1.590   1.590   1.590   1.590   1.590   1.590   1.590   1.590   1.590   1.590   1.590
   113.00    1.590   1.590   1.590   1.590   1.590   1.590   1.590   1.590   1.590   1.590   1.590   1.590   1.590   1.590   1.590   1.590   1.590   1.590   1.590   1.590   1.590   1.590   1.590   1.590   1.590   1.590   1.590   1.590   1.590   1.590   1.590
   104.00    1.590   1.590   1.590   1.590   1.590   1.590   1.590   1.590   1.590   1.590   1.590   1.590   1.590   1.590   1.590   1.590   1.590   1.590   1.590   1.590   1.590   1.590   1.590   1.590   1.590   1.590   1.590   1.590   1.590   1.590   1.590
    95.00    1.590   1.590   1.590   1.590   1.590   1.590   1.590   1.590   1.590   1.590   1.590   1.590   1.590   1.590   1.590   1.590   1.590   1.590   1.590   1.590   1.590   1.590   1.590   1.590   1.590   1.590   1.590   1.590   1.590   1.590   1.590
    86.00    1.590   1.590   1.590   1.590   1.590   1.590   1.590   1.590   1.590   1.590   1.590   1.590   1.590   1.590   1.590   1.590   1.590   1.590   1.590   1.590   1.590   1.590   1.590   1.590   1.590   1.590   1.590   1.590   1.590   1.590   1.590
    77.00    1.590   1.590   1.590   1.590   1.590   1.590   1.590   1.590   1.590   1.590   1.590   1.590   1.590   1.590   1.590   1.590   1.590   1.590   1.590   1.590   1.590   1.590   1.590   1.590   1.590   1.590   1.590   1.590   1.590   1.590   1.590
    68.00    1.590   1.590   1.590   1.590   1.590   1.590   1.590   1.590   1.590   1.590   1.590   1.590   1.590   1.590   1.590   1.590   1.590   1.590   1.590   1.590   1.590   1.590   1.590   1.590   1.590   1.590   1.590   1.590   1.590   1.590   1.590
    59.00    1.590   1.590   1.590   1.590   1.590   1.590   1.590   1.590   1.590   1.590   1.590   1.590   1.590   1.590   1.590   1.590   1.590   1.590   1.590   1.590   1.590   1.590   1.590   1.590   1.590   1.590   1.590   1.590   1.590   1.590   1.590
    50.00    1.590   1.590   1.590   1.590   1.590   1.590   1.590   1.590   1.590   1.590   1.590   1.590   1.590   1.590   1.590   1.590   1.590   1.590   1.590   1.590   1.590   1.590   1.590   1.590   1.590   1.590   1.590   1.590   1.590   1.590   1.590
    41.00    1.590   1.590   1.590   1.590   1.590   1.590   1.590   1.590   1.590   1.590   1.590   1.590   1.590   1.590   1.590   1.590   1.590   1.590   1.590   1.590   1.590   1.590   1.590   1.590   1.590   1.590   1.590   1.590   1.590   1.590   1.590
    32.00    1.590   1.590   1.590   1.590   1.590   1.590   1.590   1.590   1.590   1.590   1.590   1.590   1.590   1.590   1.590   1.590   1.590   1.590   1.590   1.590   1.590   1.590   1.590   1.590   1.590   1.590   1.590   1.590   1.590   1.590   1.590
    23.00    1.590   1.590   1.590   1.590   1.590   1.590   1.590   1.590   1.590   1.590   1.590   1.590   1.590   1.590   1.590   1.590   1.590   1.590   1.590   1.590   1.590   1.590   1.590   1.590   1.590   1.590   1.590   1.590   1.590   1.590   1.590
    14.00    1.590   1.590   1.590   1.590   1.590   1.590   1.590   1.590   1.590   1.590   1.590   1.590   1.590   1.590   1.590   1.590   1.590   1.590   1.590   1.590   1.590   1.590   1.590   1.590   1.590   1.590   1.590   1.590   1.590   1.590   1.590
     5.00    1.590   1.590   1.590   1.590   1.590   1.590   1.590   1.590   1.590   1.590   1.590   1.590   1.590   1.590   1.590   1.590   1.590   1.590   1.590   1.590   1.590   1.590   1.590   1.590   1.590   1.590   1.590   1.590   1.590   1.590   1.590

   Mean standard deviation across all grid points:
      u component:    3.265 m/s
      v component:    2.588 m/s
      w component:    1.590 m/s


U-component (X) statistics from the hub grid point:

   Mean =  30.0000 m/s
   TI   =  10.0588 %

Nyquist frequency of turbulent wind field =        10.000 Hz


Processing complete.  190.7 CPU seconds used.
