
This summary information was generated by ElastoDyn on 03-Dec-2024 at 12:57:02.


Turbine features:

            Upwind, 3-bladed rotor with rigid hub.
            The model has 14 of 24 DOFs active (enabled) at start-up.
 Disabled   Platform horizontal surge translation DOF 
 Disabled   Platform horizontal sway translation DOF 
 Disabled   Platform vertical heave translation DOF 
 Disabled   Platform roll tilt rotation DOF 
 Disabled   Platform pitch tilt rotation DOF 
 Disabled   Platform yaw rotation DOF 
 Enabled    1st tower fore-aft bending mode DOF 
 Enabled    1st tower side-to-side bending mode DOF 
 Enabled    2nd tower fore-aft bending mode DOF 
 Enabled    2nd tower side-to-side bending mode DOF 
 Disabled   Nacelle yaw DOF 
 Disabled   Rotor-furl DOF 
 Enabled    Variable speed generator DOF 
 Disabled   Drivetrain rotational-flexibility DOF 
 Disabled   Tail-furl DOF 
 Enabled    1st flapwise bending-mode DOF of blade 1 
 Enabled    1st edgewise bending-mode DOF of blade 1 
 Enabled    2nd flapwise bending-mode DOF of blade 1 
 Enabled    1st flapwise bending-mode DOF of blade 2 
 Enabled    1st edgewise bending-mode DOF of blade 2 
 Enabled    2nd flapwise bending-mode DOF of blade 2 
 Enabled    1st flapwise bending-mode DOF of blade 3 
 Enabled    1st edgewise bending-mode DOF of blade 3 
 Enabled    2nd flapwise bending-mode DOF of blade 3 


Time steps:

    Structural            (s)        0.01000000


Some calculated parameters:

    Hub-Height            (m)           140.567
    Flexible Tower Length (m)           137.000
    Flexible Blade Length (m)            87.000


Rotor mass properties:

    Rotor Mass            (kg)       111356.305
    Rotor Inertia         (kg-m^2) 96750480.000
                                        Blade 1      Blade 2      Blade 3
                                        -------      -------      -------
    Mass                  (kg)        24548.123    24548.123    24548.123
    Second Mass Moment    (kg-m^2) 29651762.000 29651762.000 29651762.000
    First Mass Moment     (kg-m)     702432.375   702432.375   702432.375
    Center of Mass        (m)            28.615       28.615       28.615


Additional mass properties:

    Tower-top Mass        (kg)       356000.625
    Tower Mass            (kg)      1155480.125
    Platform Mass         (kg)            0.000
    Mass Incl. Platform   (kg)      1511480.750


Interpolated tower properties:

Node  TwFract   HNodes  DHNodes  TMassDen    FAStiff    SSStiff
 (-)      (-)      (m)      (m)    (kg/m)     (Nm^2)     (Nm^2)
   1    0.025    3.425    6.850 11679.000  1.234E+12  1.234E+12
   2    0.075   10.275    6.850 11679.000  1.234E+12  1.234E+12
   3    0.125   17.125    6.850 11679.000  1.234E+12  1.234E+12
   4    0.175   23.975    6.850 11632.603  1.228E+12  1.228E+12
   5    0.225   30.825    6.850 11306.774  1.185E+12  1.185E+12
   6    0.275   37.675    6.850 10980.946  1.142E+12  1.142E+12
   7    0.325   44.525    6.850 10655.118  1.099E+12  1.099E+12
   8    0.375   51.375    6.850 10107.707  1.035E+12  1.035E+12
   9    0.425   58.225    6.850  9499.535  9.643E+11  9.643E+11
  10    0.475   65.075    6.850  8891.362  8.939E+11  8.939E+11
  11    0.525   71.925    6.850  8307.887  8.309E+11  8.309E+11
  12    0.575   78.775    6.850  7757.526  7.780E+11  7.780E+11
  13    0.625   85.625    6.850  7207.167  7.250E+11  7.250E+11
  14    0.675   92.475    6.850  6660.814  6.726E+11  6.726E+11
  15    0.725   99.325    6.850  6168.200  6.268E+11  6.268E+11
  16    0.775  106.175    6.850  5675.586  5.810E+11  5.810E+11
  17    0.825  113.025    6.850  5182.973  5.352E+11  5.352E+11
  18    0.875  119.875    6.850  4831.570  4.979E+11  4.979E+11
  19    0.925  126.725    6.850  4537.342  4.642E+11  4.642E+11
  20    0.975  133.575    6.850  4243.115  4.304E+11  4.304E+11


Interpolated blade 1 properties:

Node  BlFract   RNodes  DRNodes PitchAxis  StrcTwst  BMassDen    FlpStff    EdgStff
 (-)      (-)      (m)      (m)       (-)     (deg)    (kg/m)     (Nm^2)     (Nm^2)
   1    0.010    2.870    1.740     0.250    68.102   373.000  3.840E+10  3.840E+10
   2    0.030    4.610    1.740     0.250    57.349   373.000  3.840E+10  3.840E+10
   3    0.050    6.350    1.740     0.250    46.786   375.804  3.829E+10  3.920E+10
   4    0.070    8.090    1.740     0.250    39.834   431.891  3.603E+10  5.515E+10
   5    0.090    9.830    1.740     0.250    32.882   487.978  3.377E+10  7.111E+10
   6    0.110   11.570    1.740     0.250    25.406   554.979  3.272E+10  9.645E+10
   7    0.130   13.310    1.740     0.250    17.756   625.617  3.208E+10  1.249E+11
   8    0.150   15.050    1.740     0.250    12.603   654.313  3.028E+10  1.367E+11
   9    0.170   16.790    1.740     0.250    11.197   620.094  2.673E+10  1.235E+11
  10    0.190   18.530    1.740     0.250     9.791   585.875  2.318E+10  1.104E+11
  11    0.210   20.270    1.740     0.250     8.384   551.656  1.962E+10  9.716E+10
  12    0.230   22.010    1.740     0.250     6.978   517.438  1.607E+10  8.398E+10
  13    0.250   23.750    1.740     0.250     5.571   483.219  1.252E+10  7.079E+10
  14    0.270   25.490    1.740     0.250     4.165   449.000  8.970E+09  5.760E+10
  15    0.290   27.230    1.740     0.250     3.516   432.576  8.403E+09  5.396E+10
  16    0.310   28.970    1.740     0.250     2.866   416.152  7.836E+09  5.032E+10
  17    0.330   30.710    1.740     0.250     2.217   399.729  7.269E+09  4.667E+10
  18    0.350   32.450    1.740     0.250     1.568   383.305  6.702E+09  4.303E+10
  19    0.370   34.190    1.740     0.250     0.919   366.881  6.136E+09  3.939E+10
  20    0.390   35.930    1.740     0.250     0.269   350.457  5.569E+09  3.575E+10
  21    0.410   37.670    1.740     0.250    -0.380   334.033  5.002E+09  3.210E+10
  22    0.430   39.410    1.740     0.250    -0.858   318.335  4.504E+09  2.908E+10
  23    0.450   41.150    1.740     0.250    -1.128   303.525  4.092E+09  2.681E+10
  24    0.470   42.890    1.740     0.250    -1.398   288.715  3.679E+09  2.455E+10
  25    0.490   44.630    1.740     0.250    -1.667   273.905  3.266E+09  2.228E+10
  26    0.510   46.370    1.740     0.250    -1.937   259.095  2.854E+09  2.002E+10
  27    0.530   48.110    1.740     0.250    -2.206   244.285  2.441E+09  1.775E+10
  28    0.550   49.850    1.740     0.250    -2.476   229.475  2.028E+09  1.549E+10
  29    0.570   51.590    1.740     0.250    -2.746   214.664  1.616E+09  1.322E+10
  30    0.590   53.330    1.740     0.250    -2.763   201.808  1.353E+09  1.163E+10
  31    0.610   55.070    1.740     0.250    -2.574   190.550  1.213E+09  1.058E+10
  32    0.630   56.810    1.740     0.250    -2.386   179.291  1.074E+09  9.535E+09
  33    0.650   58.550    1.740     0.250    -2.197   168.033  9.339E+08  8.490E+09
  34    0.670   60.290    1.740     0.250    -2.008   156.775  7.942E+08  7.445E+09
  35    0.690   62.030    1.740     0.250    -1.819   145.516  6.545E+08  6.400E+09
  36    0.710   63.770    1.740     0.250    -1.631   134.258  5.147E+08  5.355E+09
  37    0.730   65.510    1.740     0.250    -1.442   123.000  3.750E+08  4.310E+09
  38    0.750   67.250    1.740     0.250    -1.331   114.766  3.267E+08  3.862E+09
  39    0.770   68.990    1.740     0.250    -1.220   106.531  2.785E+08  3.413E+09
  40    0.790   70.730    1.740     0.250    -1.109    98.297  2.302E+08  2.965E+09
  41    0.810   72.470    1.740     0.250    -0.998    90.062  1.819E+08  2.516E+09
  42    0.830   74.210    1.740     0.250    -0.887    81.828  1.337E+08  2.068E+09
  43    0.850   75.950    1.740     0.250    -0.776    73.594  8.541E+07  1.619E+09
  44    0.870   77.690    1.740     0.250    -0.794    66.713  6.069E+07  1.322E+09
  45    0.890   79.430    1.740     0.250    -0.896    60.734  5.168E+07  1.126E+09
  46    0.910   81.170    1.740     0.250    -0.999    54.756  4.267E+07  9.289E+08
  47    0.930   82.910    1.740     0.250    -1.102    48.777  3.366E+07  7.324E+08
  48    0.950   84.650    1.740     0.250    -1.205    42.799  2.465E+07  5.358E+08
  49    0.970   86.390    1.740     0.250    -1.294    37.924  1.970E+07  4.283E+08
  50    0.990   88.130    1.740     0.250    -1.383    33.108  1.497E+07  3.254E+08


Interpolated blade 2 properties:

Node  BlFract   RNodes  DRNodes PitchAxis  StrcTwst  BMassDen    FlpStff    EdgStff
 (-)      (-)      (m)      (m)       (-)     (deg)    (kg/m)     (Nm^2)     (Nm^2)
   1    0.010    2.870    1.740     0.250    68.102   373.000  3.840E+10  3.840E+10
   2    0.030    4.610    1.740     0.250    57.349   373.000  3.840E+10  3.840E+10
   3    0.050    6.350    1.740     0.250    46.786   375.804  3.829E+10  3.920E+10
   4    0.070    8.090    1.740     0.250    39.834   431.891  3.603E+10  5.515E+10
   5    0.090    9.830    1.740     0.250    32.882   487.978  3.377E+10  7.111E+10
   6    0.110   11.570    1.740     0.250    25.406   554.979  3.272E+10  9.645E+10
   7    0.130   13.310    1.740     0.250    17.756   625.617  3.208E+10  1.249E+11
   8    0.150   15.050    1.740     0.250    12.603   654.313  3.028E+10  1.367E+11
   9    0.170   16.790    1.740     0.250    11.197   620.094  2.673E+10  1.235E+11
  10    0.190   18.530    1.740     0.250     9.791   585.875  2.318E+10  1.104E+11
  11    0.210   20.270    1.740     0.250     8.384   551.656  1.962E+10  9.716E+10
  12    0.230   22.010    1.740     0.250     6.978   517.438  1.607E+10  8.398E+10
  13    0.250   23.750    1.740     0.250     5.571   483.219  1.252E+10  7.079E+10
  14    0.270   25.490    1.740     0.250     4.165   449.000  8.970E+09  5.760E+10
  15    0.290   27.230    1.740     0.250     3.516   432.576  8.403E+09  5.396E+10
  16    0.310   28.970    1.740     0.250     2.866   416.152  7.836E+09  5.032E+10
  17    0.330   30.710    1.740     0.250     2.217   399.729  7.269E+09  4.667E+10
  18    0.350   32.450    1.740     0.250     1.568   383.305  6.702E+09  4.303E+10
  19    0.370   34.190    1.740     0.250     0.919   366.881  6.136E+09  3.939E+10
  20    0.390   35.930    1.740     0.250     0.269   350.457  5.569E+09  3.575E+10
  21    0.410   37.670    1.740     0.250    -0.380   334.033  5.002E+09  3.210E+10
  22    0.430   39.410    1.740     0.250    -0.858   318.335  4.504E+09  2.908E+10
  23    0.450   41.150    1.740     0.250    -1.128   303.525  4.092E+09  2.681E+10
  24    0.470   42.890    1.740     0.250    -1.398   288.715  3.679E+09  2.455E+10
  25    0.490   44.630    1.740     0.250    -1.667   273.905  3.266E+09  2.228E+10
  26    0.510   46.370    1.740     0.250    -1.937   259.095  2.854E+09  2.002E+10
  27    0.530   48.110    1.740     0.250    -2.206   244.285  2.441E+09  1.775E+10
  28    0.550   49.850    1.740     0.250    -2.476   229.475  2.028E+09  1.549E+10
  29    0.570   51.590    1.740     0.250    -2.746   214.664  1.616E+09  1.322E+10
  30    0.590   53.330    1.740     0.250    -2.763   201.808  1.353E+09  1.163E+10
  31    0.610   55.070    1.740     0.250    -2.574   190.550  1.213E+09  1.058E+10
  32    0.630   56.810    1.740     0.250    -2.386   179.291  1.074E+09  9.535E+09
  33    0.650   58.550    1.740     0.250    -2.197   168.033  9.339E+08  8.490E+09
  34    0.670   60.290    1.740     0.250    -2.008   156.775  7.942E+08  7.445E+09
  35    0.690   62.030    1.740     0.250    -1.819   145.516  6.545E+08  6.400E+09
  36    0.710   63.770    1.740     0.250    -1.631   134.258  5.147E+08  5.355E+09
  37    0.730   65.510    1.740     0.250    -1.442   123.000  3.750E+08  4.310E+09
  38    0.750   67.250    1.740     0.250    -1.331   114.766  3.267E+08  3.862E+09
  39    0.770   68.990    1.740     0.250    -1.220   106.531  2.785E+08  3.413E+09
  40    0.790   70.730    1.740     0.250    -1.109    98.297  2.302E+08  2.965E+09
  41    0.810   72.470    1.740     0.250    -0.998    90.062  1.819E+08  2.516E+09
  42    0.830   74.210    1.740     0.250    -0.887    81.828  1.337E+08  2.068E+09
  43    0.850   75.950    1.740     0.250    -0.776    73.594  8.541E+07  1.619E+09
  44    0.870   77.690    1.740     0.250    -0.794    66.713  6.069E+07  1.322E+09
  45    0.890   79.430    1.740     0.250    -0.896    60.734  5.168E+07  1.126E+09
  46    0.910   81.170    1.740     0.250    -0.999    54.756  4.267E+07  9.289E+08
  47    0.930   82.910    1.740     0.250    -1.102    48.777  3.366E+07  7.324E+08
  48    0.950   84.650    1.740     0.250    -1.205    42.799  2.465E+07  5.358E+08
  49    0.970   86.390    1.740     0.250    -1.294    37.924  1.970E+07  4.283E+08
  50    0.990   88.130    1.740     0.250    -1.383    33.108  1.497E+07  3.254E+08


Interpolated blade 3 properties:

Node  BlFract   RNodes  DRNodes PitchAxis  StrcTwst  BMassDen    FlpStff    EdgStff
 (-)      (-)      (m)      (m)       (-)     (deg)    (kg/m)     (Nm^2)     (Nm^2)
   1    0.010    2.870    1.740     0.250    68.102   373.000  3.840E+10  3.840E+10
   2    0.030    4.610    1.740     0.250    57.349   373.000  3.840E+10  3.840E+10
   3    0.050    6.350    1.740     0.250    46.786   375.804  3.829E+10  3.920E+10
   4    0.070    8.090    1.740     0.250    39.834   431.891  3.603E+10  5.515E+10
   5    0.090    9.830    1.740     0.250    32.882   487.978  3.377E+10  7.111E+10
   6    0.110   11.570    1.740     0.250    25.406   554.979  3.272E+10  9.645E+10
   7    0.130   13.310    1.740     0.250    17.756   625.617  3.208E+10  1.249E+11
   8    0.150   15.050    1.740     0.250    12.603   654.313  3.028E+10  1.367E+11
   9    0.170   16.790    1.740     0.250    11.197   620.094  2.673E+10  1.235E+11
  10    0.190   18.530    1.740     0.250     9.791   585.875  2.318E+10  1.104E+11
  11    0.210   20.270    1.740     0.250     8.384   551.656  1.962E+10  9.716E+10
  12    0.230   22.010    1.740     0.250     6.978   517.438  1.607E+10  8.398E+10
  13    0.250   23.750    1.740     0.250     5.571   483.219  1.252E+10  7.079E+10
  14    0.270   25.490    1.740     0.250     4.165   449.000  8.970E+09  5.760E+10
  15    0.290   27.230    1.740     0.250     3.516   432.576  8.403E+09  5.396E+10
  16    0.310   28.970    1.740     0.250     2.866   416.152  7.836E+09  5.032E+10
  17    0.330   30.710    1.740     0.250     2.217   399.729  7.269E+09  4.667E+10
  18    0.350   32.450    1.740     0.250     1.568   383.305  6.702E+09  4.303E+10
  19    0.370   34.190    1.740     0.250     0.919   366.881  6.136E+09  3.939E+10
  20    0.390   35.930    1.740     0.250     0.269   350.457  5.569E+09  3.575E+10
  21    0.410   37.670    1.740     0.250    -0.380   334.033  5.002E+09  3.210E+10
  22    0.430   39.410    1.740     0.250    -0.858   318.335  4.504E+09  2.908E+10
  23    0.450   41.150    1.740     0.250    -1.128   303.525  4.092E+09  2.681E+10
  24    0.470   42.890    1.740     0.250    -1.398   288.715  3.679E+09  2.455E+10
  25    0.490   44.630    1.740     0.250    -1.667   273.905  3.266E+09  2.228E+10
  26    0.510   46.370    1.740     0.250    -1.937   259.095  2.854E+09  2.002E+10
  27    0.530   48.110    1.740     0.250    -2.206   244.285  2.441E+09  1.775E+10
  28    0.550   49.850    1.740     0.250    -2.476   229.475  2.028E+09  1.549E+10
  29    0.570   51.590    1.740     0.250    -2.746   214.664  1.616E+09  1.322E+10
  30    0.590   53.330    1.740     0.250    -2.763   201.808  1.353E+09  1.163E+10
  31    0.610   55.070    1.740     0.250    -2.574   190.550  1.213E+09  1.058E+10
  32    0.630   56.810    1.740     0.250    -2.386   179.291  1.074E+09  9.535E+09
  33    0.650   58.550    1.740     0.250    -2.197   168.033  9.339E+08  8.490E+09
  34    0.670   60.290    1.740     0.250    -2.008   156.775  7.942E+08  7.445E+09
  35    0.690   62.030    1.740     0.250    -1.819   145.516  6.545E+08  6.400E+09
  36    0.710   63.770    1.740     0.250    -1.631   134.258  5.147E+08  5.355E+09
  37    0.730   65.510    1.740     0.250    -1.442   123.000  3.750E+08  4.310E+09
  38    0.750   67.250    1.740     0.250    -1.331   114.766  3.267E+08  3.862E+09
  39    0.770   68.990    1.740     0.250    -1.220   106.531  2.785E+08  3.413E+09
  40    0.790   70.730    1.740     0.250    -1.109    98.297  2.302E+08  2.965E+09
  41    0.810   72.470    1.740     0.250    -0.998    90.062  1.819E+08  2.516E+09
  42    0.830   74.210    1.740     0.250    -0.887    81.828  1.337E+08  2.068E+09
  43    0.850   75.950    1.740     0.250    -0.776    73.594  8.541E+07  1.619E+09
  44    0.870   77.690    1.740     0.250    -0.794    66.713  6.069E+07  1.322E+09
  45    0.890   79.430    1.740     0.250    -0.896    60.734  5.168E+07  1.126E+09
  46    0.910   81.170    1.740     0.250    -0.999    54.756  4.267E+07  9.289E+08
  47    0.930   82.910    1.740     0.250    -1.102    48.777  3.366E+07  7.324E+08
  48    0.950   84.650    1.740     0.250    -1.205    42.799  2.465E+07  5.358E+08
  49    0.970   86.390    1.740     0.250    -1.294    37.924  1.970E+07  4.283E+08
  50    0.990   88.130    1.740     0.250    -1.383    33.108  1.497E+07  3.254E+08


Requested Outputs:


 Col   Parameter            Units               
 ---   ---------------      ---------------     
   0   Time                 (s)                 
   1   YawPzn               (deg)               
   2   BldPitch1            (deg)               
   3   BldPitch2            (deg)               
   4   BldPitch3            (deg)               
   5   Azimuth              (deg)               
   6   RotSpeed             (rpm)               
   7   RotTorq              (kN-m)              
   8   RotPwr               (kW)                
   9   TipClrnc1            (m)                 
  10   TipClrnc2            (m)                 
  11   TipClrnc3            (m)                 
  12   TTDspFA              (m)                 
  13   TTDspSS              (m)                 
  14   RootFxb1             (kN)                
  15   RootFyb1             (kN)                
  16   RootFzb1             (kN)                
  17   RootMxb1             (kN-m)              
  18   RootMyb1             (kN-m)              
  19   RootMzb1             (kN-m)              
  20   RootFxc1             (kN)                
  21   RootFyc1             (kN)                
  22   RootMxc1             (kN-m)              
  23   RootMyc1             (kN-m)              
  24   LSShftFxa            (kN)                
  25   LSShftFya            (kN)                
  26   LSShftFza            (kN)                
  27   LSShftMxa            (kN-m)              
  28   LSSTipMya            (kN-m)              
  29   LSSTipMza            (kN-m)              
  30   LSShftFys            (kN)                
  31   LSShftFzs            (kN)                
  32   LSSTipMys            (kN-m)              
  33   LSSTipMzs            (kN-m)              
  34   HSShftTq             (kN-m)              
  35   HSSBrTq              (kN-m)              
  36   HSShftPwr            (kW)                
  37   HSShftV              (rpm)               
  38   HSShftA              (deg/s^2)           
  39   YawBrFxp             (kN)                
  40   YawBrFyp             (kN)                
  41   YawBrFzp             (kN)                
  42   YawBrMxp             (kN-m)              
  43   YawBrMyp             (kN-m)              
  44   YawBrMzp             (kN-m)              
  45   TwrBsFxt             (kN)                
  46   TwrBsFyt             (kN)                
  47   TwrBsFzt             (kN)                
  48   TwrBsMxt             (kN-m)              
  49   TwrBsMyt             (kN-m)              
  50   TwrBsMzt             (kN-m)              


  Requested Output Channels at each blade station:
 Col   Parameter            Units               
 ---   ---------------      ---------------     
