
This summary information was generated by ElastoDyn on 19-Dec-2024 at 00:11:28.


Turbine features:

            Upwind, 3-bladed rotor with rigid hub.
            The model has 14 of 24 DOFs active (enabled) at start-up.
 Disabled   Platform horizontal surge translation DOF 
 Disabled   Platform horizontal sway translation DOF 
 Disabled   Platform vertical heave translation DOF 
 Disabled   Platform roll tilt rotation DOF 
 Disabled   Platform pitch tilt rotation DOF 
 Disabled   Platform yaw rotation DOF 
 Enabled    1st tower fore-aft bending mode DOF 
 Enabled    1st tower side-to-side bending mode DOF 
 Enabled    2nd tower fore-aft bending mode DOF 
 Enabled    2nd tower side-to-side bending mode DOF 
 Disabled   Nacelle yaw DOF 
 Disabled   Rotor-furl DOF 
 Enabled    Variable speed generator DOF 
 Disabled   Drivetrain rotational-flexibility DOF 
 Disabled   Tail-furl DOF 
 Enabled    1st flapwise bending-mode DOF of blade 1 
 Enabled    1st edgewise bending-mode DOF of blade 1 
 Enabled    2nd flapwise bending-mode DOF of blade 1 
 Enabled    1st flapwise bending-mode DOF of blade 2 
 Enabled    1st edgewise bending-mode DOF of blade 2 
 Enabled    2nd flapwise bending-mode DOF of blade 2 
 Enabled    1st flapwise bending-mode DOF of blade 3 
 Enabled    1st edgewise bending-mode DOF of blade 3 
 Enabled    2nd flapwise bending-mode DOF of blade 3 


Time steps:

    Structural            (s)        0.01000000


Some calculated parameters:

    Hub-Height            (m)           140.174
    Flexible Tower Length (m)           137.000
    Flexible Blade Length (m)            87.000


Rotor mass properties:

    Rotor Mass            (kg)       122268.922
    Rotor Inertia         (kg-m^2) 98167088.000
                                        Blade 1      Blade 2      Blade 3
                                        -------      -------      -------
    Mass                  (kg)        24562.643    24562.643    24562.643
    Second Mass Moment    (kg-m^2) 29988166.000 29988166.000 29988166.000
    First Mass Moment     (kg-m)     709956.625   709956.625   709956.625
    Center of Mass        (m)            28.904       28.904       28.904


Additional mass properties:

    Tower-top Mass        (kg)       366913.250
    Tower Mass            (kg)      1087476.625
    Platform Mass         (kg)            0.000
    Mass Incl. Platform   (kg)      1454389.875


Interpolated tower properties:

Node  TwFract   HNodes  DHNodes  TMassDen    FAStiff    SSStiff
 (-)      (-)      (m)      (m)    (kg/m)     (Nm^2)     (Nm^2)
   1    0.025    3.425    6.850 11769.565  1.370E+12  1.370E+12
   2    0.075   10.275    6.850 11769.565  1.370E+12  1.370E+12
   3    0.125   17.125    6.850 11769.565  1.370E+12  1.370E+12
   4    0.175   23.975    6.850 11665.099  1.361E+12  1.361E+12
   5    0.225   30.825    6.850 10931.151  1.299E+12  1.299E+12
   6    0.275   37.675    6.850 10197.205  1.236E+12  1.236E+12
   7    0.325   44.525    6.850  9463.258  1.173E+12  1.173E+12
   8    0.375   51.375    6.850  9058.923  1.078E+12  1.078E+12
   9    0.425   58.225    6.850  8745.041  9.745E+11  9.745E+11
  10    0.475   65.075    6.850  8431.158  8.706E+11  8.706E+11
  11    0.525   71.925    6.850  7983.964  7.711E+11  7.711E+11
  12    0.575   78.775    6.850  7357.882  6.776E+11  6.776E+11
  13    0.625   85.625    6.850  6731.800  5.840E+11  5.840E+11
  14    0.675   92.475    6.850  6115.648  4.931E+11  4.931E+11
  15    0.725   99.325    6.850  5632.782  4.374E+11  4.374E+11
  16    0.775  106.175    6.850  5149.915  3.818E+11  3.818E+11
  17    0.825  113.025    6.850  4667.048  3.261E+11  3.261E+11
  18    0.875  119.875    6.850  4213.590  2.745E+11  2.745E+11
  19    0.925  126.725    6.850  3772.045  2.247E+11  2.247E+11
  20    0.975  133.575    6.850  3330.501  1.749E+11  1.749E+11


Interpolated blade 1 properties:

Node  BlFract   RNodes  DRNodes PitchAxis  StrcTwst  BMassDen    FlpStff    EdgStff
 (-)      (-)      (m)      (m)       (-)     (deg)    (kg/m)     (Nm^2)     (Nm^2)
   1    0.024    4.129    4.258     0.250    60.321   373.000  1.999E+10  2.080E+10
   2    0.072    8.283    4.050     0.250    39.063   438.112  1.350E+10  1.691E+10
   3    0.119   12.333    4.049     0.250    22.054   585.934  9.018E+09  1.547E+10
   4    0.206   19.931   11.148     0.250     8.658   558.323  6.610E+09  1.223E+10
   5    0.345   32.057   13.105     0.250     1.714   387.009  4.167E+09  7.186E+09
   6    0.500   45.500   13.780     0.250    -1.802   266.500  1.704E+09  3.286E+09
   7    0.655   58.943   13.105     0.250    -2.154   165.494  5.304E+08  1.020E+09
   8    0.794   71.069   11.148     0.250    -1.088    96.693  1.405E+08  3.604E+08
   9    0.905   80.692    8.099     0.250    -0.971    56.397  3.420E+07  1.090E+08
  10    0.976   86.871    4.258     0.250    -1.319    36.593  1.464E+06  1.226E+07


Interpolated blade 2 properties:

Node  BlFract   RNodes  DRNodes PitchAxis  StrcTwst  BMassDen    FlpStff    EdgStff
 (-)      (-)      (m)      (m)       (-)     (deg)    (kg/m)     (Nm^2)     (Nm^2)
   1    0.024    4.129    4.258     0.250    60.321   373.000  1.999E+10  2.080E+10
   2    0.072    8.283    4.050     0.250    39.063   438.112  1.350E+10  1.691E+10
   3    0.119   12.333    4.049     0.250    22.054   585.934  9.018E+09  1.547E+10
   4    0.206   19.931   11.148     0.250     8.658   558.323  6.610E+09  1.223E+10
   5    0.345   32.057   13.105     0.250     1.714   387.009  4.167E+09  7.186E+09
   6    0.500   45.500   13.780     0.250    -1.802   266.500  1.704E+09  3.286E+09
   7    0.655   58.943   13.105     0.250    -2.154   165.494  5.304E+08  1.020E+09
   8    0.794   71.069   11.148     0.250    -1.088    96.693  1.405E+08  3.604E+08
   9    0.905   80.692    8.099     0.250    -0.971    56.397  3.420E+07  1.090E+08
  10    0.976   86.871    4.258     0.250    -1.319    36.593  1.464E+06  1.226E+07


Interpolated blade 3 properties:

Node  BlFract   RNodes  DRNodes PitchAxis  StrcTwst  BMassDen    FlpStff    EdgStff
 (-)      (-)      (m)      (m)       (-)     (deg)    (kg/m)     (Nm^2)     (Nm^2)
   1    0.024    4.129    4.258     0.250    60.321   373.000  1.999E+10  2.080E+10
   2    0.072    8.283    4.050     0.250    39.063   438.112  1.350E+10  1.691E+10
   3    0.119   12.333    4.049     0.250    22.054   585.934  9.018E+09  1.547E+10
   4    0.206   19.931   11.148     0.250     8.658   558.323  6.610E+09  1.223E+10
   5    0.345   32.057   13.105     0.250     1.714   387.009  4.167E+09  7.186E+09
   6    0.500   45.500   13.780     0.250    -1.802   266.500  1.704E+09  3.286E+09
   7    0.655   58.943   13.105     0.250    -2.154   165.494  5.304E+08  1.020E+09
   8    0.794   71.069   11.148     0.250    -1.088    96.693  1.405E+08  3.604E+08
   9    0.905   80.692    8.099     0.250    -0.971    56.397  3.420E+07  1.090E+08
  10    0.976   86.871    4.258     0.250    -1.319    36.593  1.464E+06  1.226E+07


Requested Outputs:


 Col   Parameter            Units               
 ---   ---------------      ---------------     
   0   Time                 (s)                 
   1   YawPzn               (deg)               
   2   BldPitch1            (deg)               
   3   BldPitch2            (deg)               
   4   BldPitch3            (deg)               
   5   Azimuth              (deg)               
   6   RotSpeed             (rpm)               
   7   RotTorq              (kN-m)              
   8   RotPwr               (kW)                
   9   TipClrnc1            (m)                 
  10   TipClrnc2            (m)                 
  11   TipClrnc3            (m)                 
  12   TTDspFA              (m)                 
  13   TTDspSS              (m)                 
  14   RootFxb1             (kN)                
  15   RootFyb1             (kN)                
  16   RootFzb1             (kN)                
  17   RootMxb1             (kN-m)              
  18   RootMyb1             (kN-m)              
  19   RootMzb1             (kN-m)              
  20   RootFxc1             (kN)                
  21   RootFyc1             (kN)                
  22   RootMxc1             (kN-m)              
  23   RootMyc1             (kN-m)              
  24   LSShftFxa            (kN)                
  25   LSShftFya            (kN)                
  26   LSShftFza            (kN)                
  27   LSShftMxa            (kN-m)              
  28   LSSTipMya            (kN-m)              
  29   LSSTipMza            (kN-m)              
  30   LSShftFys            (kN)                
  31   LSShftFzs            (kN)                
  32   LSSTipMys            (kN-m)              
  33   LSSTipMzs            (kN-m)              
  34   HSShftTq             (kN-m)              
  35   HSSBrTq              (kN-m)              
  36   HSShftPwr            (kW)                
  37   HSShftV              (rpm)               
  38   HSShftA              (deg/s^2)           
  39   YawBrFxp             (kN)                
  40   YawBrFyp             (kN)                
  41   YawBrFzp             (kN)                
  42   YawBrMxp             (kN-m)              
  43   YawBrMyp             (kN-m)              
  44   YawBrMzp             (kN-m)              
  45   TwrBsFxt             (kN)                
  46   TwrBsFyt             (kN)                
  47   TwrBsFzt             (kN)                
  48   TwrBsMxt             (kN-m)              
  49   TwrBsMyt             (kN-m)              
  50   TwrBsMzt             (kN-m)              
  51   TipDxc1              (m)                 
  52   TipDyc1              (m)                 
  53   TipDzc1              (m)                 
  54   TipDxb1              (m)                 
  55   TipDyb1              (m)                 
  56   Spn1MLxb1            (kN-m)              
  57   Spn1MLyb1            (kN-m)              
  58   Spn1MLzb1            (kN-m)              
  59   Spn1FLxb1            (kN)                
  60   Spn1FLyb1            (kN)                
  61   Spn1FLzb1            (kN)                
  62   Spn2MLxb1            (kN-m)              
  63   Spn2MLyb1            (kN-m)              
  64   Spn2MLzb1            (kN-m)              
  65   Spn2FLxb1            (kN)                
  66   Spn2FLyb1            (kN)                
  67   Spn2FLzb1            (kN)                
  68   Spn3MLxb1            (kN-m)              
  69   Spn3MLyb1            (kN-m)              
  70   Spn3MLzb1            (kN-m)              
  71   Spn3FLxb1            (kN)                
  72   Spn3FLyb1            (kN)                
  73   Spn3FLzb1            (kN)                
  74   Spn4MLxb1            (kN-m)              
  75   Spn4MLyb1            (kN-m)              
  76   Spn4MLzb1            (kN-m)              
  77   Spn4FLxb1            (kN)                
  78   Spn4FLyb1            (kN)                
  79   Spn4FLzb1            (kN)                
  80   Spn5MLxb1            (kN-m)              
  81   Spn5MLyb1            (kN-m)              
  82   Spn5MLzb1            (kN-m)              
  83   Spn5FLxb1            (kN)                
  84   Spn5FLyb1            (kN)                
  85   Spn5FLzb1            (kN)                
  86   Spn6MLxb1            INVALID             
  87   Spn6MLyb1            INVALID             
  88   Spn6MLzb1            INVALID             
  89   Spn6FLxb1            INVALID             
  90   Spn6FLyb1            INVALID             
  91   Spn6FLzb1            INVALID             
  92   Spn7MLxb1            INVALID             
  93   Spn7MLyb1            INVALID             
  94   Spn7MLzb1            INVALID             
  95   Spn7FLxb1            INVALID             
  96   Spn7FLyb1            INVALID             
  97   Spn7FLzb1            INVALID             
  98   Spn8MLxb1            INVALID             
  99   Spn8MLyb1            INVALID             
 100   Spn8MLzb1            INVALID             
 101   Spn8FLxb1            INVALID             
 102   Spn8FLyb1            INVALID             
 103   Spn8FLzb1            INVALID             
 104   Spn9MLxb1            INVALID             
 105   Spn9MLyb1            INVALID             
 106   Spn9MLzb1            INVALID             
 107   Spn9FLxb1            INVALID             
 108   Spn9FLyb1            INVALID             
 109   Spn9FLzb1            INVALID             
 110   TwHt1MLxt            (kN-m)              
 111   TwHt1MLyt            (kN-m)              
 112   TwHt1MLzt            (kN-m)              
 113   TwHt1FLxt            (kN)                
 114   TwHt1FLyt            (kN)                
 115   TwHt1FLzt            (kN)                
 116   TwHt2MLxt            (kN-m)              
 117   TwHt2MLyt            (kN-m)              
 118   TwHt2MLzt            (kN-m)              
 119   TwHt2FLxt            (kN)                
 120   TwHt2FLyt            (kN)                
 121   TwHt2FLzt            (kN)                
 122   TwHt3MLxt            (kN-m)              
 123   TwHt3MLyt            (kN-m)              
 124   TwHt3MLzt            (kN-m)              
 125   TwHt3FLxt            (kN)                
 126   TwHt3FLyt            (kN)                
 127   TwHt3FLzt            (kN)                
 128   TwHt4MLxt            (kN-m)              
 129   TwHt4MLyt            (kN-m)              
 130   TwHt4MLzt            (kN-m)              
 131   TwHt4FLxt            (kN)                
 132   TwHt4FLyt            (kN)                
 133   TwHt4FLzt            (kN)                
 134   TwHt5MLxt            (kN-m)              
 135   TwHt5MLyt            (kN-m)              
 136   TwHt5MLzt            (kN-m)              
 137   TwHt5FLxt            (kN)                
 138   TwHt5FLyt            (kN)                
 139   TwHt5FLzt            (kN)                
 140   TwHt6MLxt            (kN-m)              
 141   TwHt6MLyt            (kN-m)              
 142   TwHt6MLzt            (kN-m)              
 143   TwHt6FLxt            (kN)                
 144   TwHt6FLyt            (kN)                
 145   TwHt6FLzt            (kN)                
 146   TwHt7MLxt            (kN-m)              
 147   TwHt7MLyt            (kN-m)              
 148   TwHt7MLzt            (kN-m)              
 149   TwHt7FLxt            (kN)                
 150   TwHt7FLyt            (kN)                
 151   TwHt7FLzt            (kN)                


  Requested Output Channels at each blade station:
 Col   Parameter            Units               
 ---   ---------------      ---------------     
