
This summary file was generated by TurbSim (v1.50, 25-Sep-2009) on 22-Oct-2024 at 17:41:58.


Runtime Options:

   2318573  Random seed #1
    RANLUX  Type of random number generator
         F  Output binary HH turbulence parameters?
         F  Output formatted turbulence parameters?
         F  Output AeroDyn HH files?
         T  Output AeroDyn FF files?
         T  Output BLADED FF files?
         F  Output tower data?
         F  Output formatted FF files?
         F  Output coherent turbulence time step file?
         T  Clockwise rotation when looking downwind?
 0 -  NONE  IEC turbulence models scaled to exact specified standard deviation


Turbine/Model Specifications:

        41  Vertical grid-point matrix dimension
        41  Horizontal grid-point matrix dimension
     0.050  Time step [seconds]
   640.000  Analysis time [seconds]
   610.000  Usable output time [seconds]
   140.000  Hub height [m]
   200.000  Grid height [m]
   200.000  Grid width [m]
     0.000  Vertical flow angle [degrees]
     0.000  Horizontal flow angle [degrees]


Meteorological Boundary Conditions:

    IECKAI  IEC Kaimal spectral model
         1  IEC standard: IEC 61400-1 Ed. 3: 2005
         B  IEC turbulence characteristic
    3EWM50  IEC Extreme 50-Year Wind Speed Model
       N/A  IEC Extreme Turbulence Model (ETM) "c" parameter [m/s]
       IEC  Wind profile type
   140.000  Reference height [m]
       N/A  Reference wind speed [m/s]
       N/A  Jet height [m]
       N/A  Power law exponent
     0.030  Surface roughness length [m]


You have requested that the following file(s) be generated:

   .\TurbSim.bts (AeroDyn/TurbSim full-field wind file)
   .\TurbSim.wnd (AeroDyn/BLADED full-field wnd file)


Turbulence Simulation Scaling Parameter Summary:

   Turbulence model used                            =  IEC Kaimal
   Turbulence characteristic                        =  3B
   IEC turbulence type                              =  Extreme 50-Year Wind Speed Model
   Reference wind speed average over 10 minutes     =   37.500 m/s
   Annual wind speed average at hub height          =    7.500 m/s
   IEC standard                                     =  IEC 61400-1 Ed. 3: 2005
   Mean wind speed at hub height                    =   37.500 m/s
   Expected value of turbulence intensity at 15 m/s =   14.000%
   Characteristic value of standard deviation       =    4.125 m/s
   Turbulence scale                                 =   42.000 m
   u-component integral scale                       =  340.200 m
   Coherency scale                                  =  340.200 m
   Characteristic value of hub turbulence intensity =   11.000%
   Gradient Richardson number                       =    0.000

   Wind profile type                                =  Power law on rotor disk, logarithmic elsewhere
   Power law exponent                               =    0.110
   Mean shear across rotor disk                     =    0.036 (m/s)/m
   Assumed rotor diameter                           =  200.000 m
   Surface roughness length                         =    0.030 m

   Number of time steps in the FFT                  =    12800
   Number of time steps output                      =    12307


Mean Flow Angles:

   Vertical   =   0.0 degrees
   Horizontal =   0.0 degrees

Mean Wind Speed Profile:

   Height    Wind Speed   Horizontal Angle  U-comp (X)   V-comp (Y)   W-comp (Z)
     (m)        (m/s)         (degrees)       (m/s)        (m/s)        (m/s)   
   ------    ----------   ----------------  ----------   ----------   ----------
    240.0       39.79            0.00         39.79         0.00         0.00
    235.0       39.70            0.00         39.70         0.00         0.00
    230.0       39.60            0.00         39.60         0.00         0.00
    225.0       39.51            0.00         39.51         0.00         0.00
    220.0       39.41            0.00         39.41         0.00         0.00
    215.0       39.31            0.00         39.31         0.00         0.00
    210.0       39.21            0.00         39.21         0.00         0.00
    205.0       39.11            0.00         39.11         0.00         0.00
    200.0       39.00            0.00         39.00         0.00         0.00
    195.0       38.89            0.00         38.89         0.00         0.00
    190.0       38.78            0.00         38.78         0.00         0.00
    185.0       38.67            0.00         38.67         0.00         0.00
    180.0       38.55            0.00         38.55         0.00         0.00
    175.0       38.43            0.00         38.43         0.00         0.00
    170.0       38.31            0.00         38.31         0.00         0.00
    165.0       38.18            0.00         38.18         0.00         0.00
    160.0       38.05            0.00         38.05         0.00         0.00
    155.0       37.92            0.00         37.92         0.00         0.00
    150.0       37.79            0.00         37.79         0.00         0.00
    145.0       37.65            0.00         37.65         0.00         0.00
    140.0       37.50            0.00         37.50         0.00         0.00
    135.0       37.35            0.00         37.35         0.00         0.00
    130.0       37.20            0.00         37.20         0.00         0.00
    125.0       37.04            0.00         37.04         0.00         0.00
    120.0       36.87            0.00         36.87         0.00         0.00
    115.0       36.70            0.00         36.70         0.00         0.00
    110.0       36.52            0.00         36.52         0.00         0.00
    105.0       36.33            0.00         36.33         0.00         0.00
    100.0       36.14            0.00         36.14         0.00         0.00
     95.0       35.93            0.00         35.93         0.00         0.00
     90.0       35.72            0.00         35.72         0.00         0.00
     85.0       35.50            0.00         35.50         0.00         0.00
     80.0       35.26            0.00         35.26         0.00         0.00
     75.0       35.01            0.00         35.01         0.00         0.00
     70.0       34.75            0.00         34.75         0.00         0.00
     65.0       34.46            0.00         34.46         0.00         0.00
     60.0       34.16            0.00         34.16         0.00         0.00
     55.0       33.84            0.00         33.84         0.00         0.00
     50.0       33.48            0.00         33.48         0.00         0.00
     45.0       33.10            0.00         33.10         0.00         0.00
     40.0       32.67            0.00         32.67         0.00         0.00


Harvested Random Seeds after Generation of the Random Numbers:

    299890400 K1
            0 K2
