
This summary file was generated by TurbSim (v1.50, 25-Sep-2009) on 12-Nov-2024 at 18:02:41.


Runtime Options:

   6777740  Random seed #1
    RANLUX  Type of random number generator
         F  Output binary HH turbulence parameters?
         F  Output formatted turbulence parameters?
         F  Output AeroDyn HH files?
         T  Output AeroDyn FF files?
         T  Output BLADED FF files?
         F  Output tower data?
         F  Output formatted FF files?
         F  Output coherent turbulence time step file?
         T  Clockwise rotation when looking downwind?
 0 -  NONE  IEC turbulence models scaled to exact specified standard deviation


Turbine/Model Specifications:

        64  Vertical grid-point matrix dimension
        64  Horizontal grid-point matrix dimension
     0.050  Time step [seconds]
   650.000  Analysis time [seconds]
   610.000  Usable output time [seconds]
   140.000  Hub height [m]
   260.000  Grid height [m]
   260.000  Grid width [m]
     0.000  Vertical flow angle [degrees]
     0.000  Horizontal flow angle [degrees]


Meteorological Boundary Conditions:

    IECKAI  IEC Kaimal spectral model
         1  IEC standard: IEC 61400-1 Ed. 3: 2005
         B  IEC turbulence characteristic
       NTM  IEC Normal Turbulence Model
       N/A  IEC Extreme Turbulence Model (ETM) "c" parameter [m/s]
       IEC  Wind profile type
   140.000  Reference height [m]
    25.000  Reference wind speed [m/s]
       N/A  Jet height [m]
     0.200  Power law exponent
     0.030  Surface roughness length [m]


You have requested that the following file(s) be generated:

   .\TurbSim.bts (AeroDyn/TurbSim full-field wind file)
   .\TurbSim.wnd (AeroDyn/BLADED full-field wnd file)


Turbulence Simulation Scaling Parameter Summary:

   Turbulence model used                            =  IEC Kaimal
   Turbulence characteristic                        =  B
   IEC turbulence type                              =  Normal Turbulence Model
   IEC standard                                     =  IEC 61400-1 Ed. 3: 2005
   Mean wind speed at hub height                    =   25.000 m/s
   Expected value of turbulence intensity at 15 m/s =   14.000%
   Characteristic value of standard deviation       =    3.409 m/s
   Turbulence scale                                 =   42.000 m
   u-component integral scale                       =  340.200 m
   Coherency scale                                  =  340.200 m
   Characteristic value of hub turbulence intensity =   13.636%
   Gradient Richardson number                       =    0.000

   Wind profile type                                =  Power law on rotor disk, logarithmic elsewhere
   Power law exponent                               =    0.200
   Mean shear across rotor disk                     =    0.053 (m/s)/m
   Assumed rotor diameter                           =  260.000 m
   Surface roughness length                         =    0.030 m

   Number of time steps in the FFT                  =    13000
   Number of time steps output                      =    12408


Mean Flow Angles:

   Vertical   =   0.0 degrees
   Horizontal =   0.0 degrees

Mean Wind Speed Profile:

   Height    Wind Speed   Horizontal Angle  U-comp (X)   V-comp (Y)   W-comp (Z)
     (m)        (m/s)         (degrees)       (m/s)        (m/s)        (m/s)   
   ------    ----------   ----------------  ----------   ----------   ----------
    270.0       28.51            0.00         28.51         0.00         0.00
    265.9       28.42            0.00         28.42         0.00         0.00
    261.7       28.33            0.00         28.33         0.00         0.00
    257.6       28.24            0.00         28.24         0.00         0.00
    253.5       28.15            0.00         28.15         0.00         0.00
    249.4       28.06            0.00         28.06         0.00         0.00
    245.2       27.97            0.00         27.97         0.00         0.00
    241.1       27.87            0.00         27.87         0.00         0.00
    237.0       27.78            0.00         27.78         0.00         0.00
    232.9       27.68            0.00         27.68         0.00         0.00
    228.7       27.58            0.00         27.58         0.00         0.00
    224.6       27.48            0.00         27.48         0.00         0.00
    220.5       27.38            0.00         27.38         0.00         0.00
    216.3       27.27            0.00         27.27         0.00         0.00
    212.2       27.17            0.00         27.17         0.00         0.00
    208.1       27.06            0.00         27.06         0.00         0.00
    204.0       26.95            0.00         26.95         0.00         0.00
    199.8       26.84            0.00         26.84         0.00         0.00
    195.7       26.73            0.00         26.73         0.00         0.00
    191.6       26.62            0.00         26.62         0.00         0.00
    187.5       26.50            0.00         26.50         0.00         0.00
    183.3       26.39            0.00         26.39         0.00         0.00
    179.2       26.27            0.00         26.27         0.00         0.00
    175.1       26.14            0.00         26.14         0.00         0.00
    171.0       26.02            0.00         26.02         0.00         0.00
    166.8       25.89            0.00         25.89         0.00         0.00
    162.7       25.76            0.00         25.76         0.00         0.00
    158.6       25.63            0.00         25.63         0.00         0.00
    154.4       25.50            0.00         25.50         0.00         0.00
    150.3       25.36            0.00         25.36         0.00         0.00
    146.2       25.22            0.00         25.22         0.00         0.00
    142.1       25.07            0.00         25.07         0.00         0.00
    140.0       25.00            0.00         25.00         0.00         0.00
    137.9       24.93            0.00         24.93         0.00         0.00
    133.8       24.77            0.00         24.77         0.00         0.00
    129.7       24.62            0.00         24.62         0.00         0.00
    125.6       24.46            0.00         24.46         0.00         0.00
    121.4       24.30            0.00         24.30         0.00         0.00
    117.3       24.13            0.00         24.13         0.00         0.00
    113.2       23.96            0.00         23.96         0.00         0.00
    109.0       23.78            0.00         23.78         0.00         0.00
    104.9       23.60            0.00         23.60         0.00         0.00
    100.8       23.41            0.00         23.41         0.00         0.00
     96.7       23.22            0.00         23.22         0.00         0.00
     92.5       23.01            0.00         23.01         0.00         0.00
     88.4       22.80            0.00         22.80         0.00         0.00
     84.3       22.59            0.00         22.59         0.00         0.00
     80.2       22.36            0.00         22.36         0.00         0.00
     76.0       22.13            0.00         22.13         0.00         0.00
     71.9       21.88            0.00         21.88         0.00         0.00
     67.8       21.62            0.00         21.62         0.00         0.00
     63.7       21.35            0.00         21.35         0.00         0.00
     59.5       21.07            0.00         21.07         0.00         0.00
     55.4       20.77            0.00         20.77         0.00         0.00
     51.3       20.45            0.00         20.45         0.00         0.00
     47.1       20.11            0.00         20.11         0.00         0.00
     43.0       19.74            0.00         19.74         0.00         0.00
     38.9       19.35            0.00         19.35         0.00         0.00
     34.8       18.92            0.00         18.92         0.00         0.00
     30.6       18.45            0.00         18.45         0.00         0.00
     26.5       17.92            0.00         17.92         0.00         0.00
     22.4       17.33            0.00         17.33         0.00         0.00
     18.3       16.63            0.00         16.63         0.00         0.00
     14.1       15.80            0.00         15.80         0.00         0.00
     10.0       14.75            0.00         14.75         0.00         0.00


Harvested Random Seeds after Generation of the Random Numbers:

    742325088 K1
            0 K2
