
This summary file was generated by TurbSim (v1.50, 25-Sep-2009) on 15-Nov-2024 at 23:03:44.


Runtime Options:

   6777740  Random seed #1
    RANLUX  Type of random number generator
         F  Output binary HH turbulence parameters?
         F  Output formatted turbulence parameters?
         F  Output AeroDyn HH files?
         T  Output AeroDyn FF files?
         T  Output BLADED FF files?
         F  Output tower data?
         F  Output formatted FF files?
         F  Output coherent turbulence time step file?
         T  Clockwise rotation when looking downwind?
 0 -  NONE  IEC turbulence models scaled to exact specified standard deviation


Turbine/Model Specifications:

        53  Vertical grid-point matrix dimension
        53  Horizontal grid-point matrix dimension
     0.050  Time step [seconds]
   650.000  Analysis time [seconds]
   610.000  Usable output time [seconds]
   140.000  Hub height [m]
   260.000  Grid height [m]
   260.000  Grid width [m]
     0.000  Vertical flow angle [degrees]
     0.000  Horizontal flow angle [degrees]


Meteorological Boundary Conditions:

    IECKAI  IEC Kaimal spectral model
         1  IEC standard: IEC 61400-1 Ed. 3: 2005
         B  IEC turbulence characteristic
      3ETM  IEC Extreme Turbulence Model
     2.000  IEC Extreme Turbulence Model (ETM) "c" parameter [m/s]
       IEC  Wind profile type
   140.000  Reference height [m]
     9.000  Reference wind speed [m/s]
       N/A  Jet height [m]
     0.200  Power law exponent
     0.030  Surface roughness length [m]


You have requested that the following file(s) be generated:

   .\Turbsim.bts (AeroDyn/TurbSim full-field wind file)
   .\Turbsim.wnd (AeroDyn/BLADED full-field wnd file)


Turbulence Simulation Scaling Parameter Summary:

   Turbulence model used                            =  IEC Kaimal
   Turbulence characteristic                        =  3B
   IEC turbulence type                              =  Extreme Turbulence Model
   Reference wind speed average over 10 minutes     =   37.500 m/s
   Annual wind speed average at hub height          =    7.500 m/s
   IEC standard                                     =  IEC 61400-1 Ed. 3: 2005
   Mean wind speed at hub height                    =    9.000 m/s
   Expected value of turbulence intensity at 15 m/s =   14.000%
   Characteristic value of standard deviation       =    2.868 m/s
   Turbulence scale                                 =   42.000 m
   u-component integral scale                       =  340.200 m
   Coherency scale                                  =  340.200 m
   Characteristic value of hub turbulence intensity =   31.867%
   Gradient Richardson number                       =    0.000

   Wind profile type                                =  Power law on rotor disk, logarithmic elsewhere
   Power law exponent                               =    0.200
   Mean shear across rotor disk                     =    0.019 (m/s)/m
   Assumed rotor diameter                           =  260.000 m
   Surface roughness length                         =    0.030 m

   Number of time steps in the FFT                  =    13000
   Number of time steps output                      =    12778


Mean Flow Angles:

   Vertical   =   0.0 degrees
   Horizontal =   0.0 degrees

Mean Wind Speed Profile:

   Height    Wind Speed   Horizontal Angle  U-comp (X)   V-comp (Y)   W-comp (Z)
     (m)        (m/s)         (degrees)       (m/s)        (m/s)        (m/s)   
   ------    ----------   ----------------  ----------   ----------   ----------
    270.0       10.26            0.00         10.26         0.00         0.00
    265.0       10.23            0.00         10.23         0.00         0.00
    260.0       10.19            0.00         10.19         0.00         0.00
    255.0       10.15            0.00         10.15         0.00         0.00
    250.0       10.11            0.00         10.11         0.00         0.00
    245.0       10.07            0.00         10.07         0.00         0.00
    240.0       10.02            0.00         10.02         0.00         0.00
    235.0        9.98            0.00          9.98         0.00         0.00
    230.0        9.94            0.00          9.94         0.00         0.00
    225.0        9.90            0.00          9.90         0.00         0.00
    220.0        9.85            0.00          9.85         0.00         0.00
    215.0        9.81            0.00          9.81         0.00         0.00
    210.0        9.76            0.00          9.76         0.00         0.00
    205.0        9.71            0.00          9.71         0.00         0.00
    200.0        9.67            0.00          9.67         0.00         0.00
    195.0        9.62            0.00          9.62         0.00         0.00
    190.0        9.57            0.00          9.57         0.00         0.00
    185.0        9.52            0.00          9.52         0.00         0.00
    180.0        9.46            0.00          9.46         0.00         0.00
    175.0        9.41            0.00          9.41         0.00         0.00
    170.0        9.36            0.00          9.36         0.00         0.00
    165.0        9.30            0.00          9.30         0.00         0.00
    160.0        9.24            0.00          9.24         0.00         0.00
    155.0        9.19            0.00          9.19         0.00         0.00
    150.0        9.13            0.00          9.13         0.00         0.00
    145.0        9.06            0.00          9.06         0.00         0.00
    140.0        9.00            0.00          9.00         0.00         0.00
    135.0        8.93            0.00          8.93         0.00         0.00
    130.0        8.87            0.00          8.87         0.00         0.00
    125.0        8.80            0.00          8.80         0.00         0.00
    120.0        8.73            0.00          8.73         0.00         0.00
    115.0        8.65            0.00          8.65         0.00         0.00
    110.0        8.58            0.00          8.58         0.00         0.00
    105.0        8.50            0.00          8.50         0.00         0.00
    100.0        8.41            0.00          8.41         0.00         0.00
     95.0        8.33            0.00          8.33         0.00         0.00
     90.0        8.24            0.00          8.24         0.00         0.00
     85.0        8.15            0.00          8.15         0.00         0.00
     80.0        8.05            0.00          8.05         0.00         0.00
     75.0        7.94            0.00          7.94         0.00         0.00
     70.0        7.83            0.00          7.83         0.00         0.00
     65.0        7.72            0.00          7.72         0.00         0.00
     60.0        7.60            0.00          7.60         0.00         0.00
     55.0        7.47            0.00          7.47         0.00         0.00
     50.0        7.33            0.00          7.33         0.00         0.00
     45.0        7.17            0.00          7.17         0.00         0.00
     40.0        7.01            0.00          7.01         0.00         0.00
     35.0        6.82            0.00          6.82         0.00         0.00
     30.0        6.61            0.00          6.61         0.00         0.00
     25.0        6.38            0.00          6.38         0.00         0.00
     20.0        6.10            0.00          6.10         0.00         0.00
     15.0        5.76            0.00          5.76         0.00         0.00
     10.0        5.31            0.00          5.31         0.00         0.00


Harvested Random Seeds after Generation of the Random Numbers:

    508955588 K1
            0 K2
