
This summary file was generated by TurbSim (v1.50, 25-Sep-2009) on 08-Nov-2024 at 09:28:44.


Runtime Options:

   -533840  Random seed #1
    RANLUX  Type of random number generator
         F  Output binary HH turbulence parameters?
         F  Output formatted turbulence parameters?
         F  Output AeroDyn HH files?
         T  Output AeroDyn FF files?
         T  Output BLADED FF files?
         F  Output tower data?
         F  Output formatted FF files?
         F  Output coherent turbulence time step file?
         T  Clockwise rotation when looking downwind?
 0 -  NONE  IEC turbulence models scaled to exact specified standard deviation


Turbine/Model Specifications:

        53  Vertical grid-point matrix dimension
        53  Horizontal grid-point matrix dimension
     0.050  Time step [seconds]
   650.000  Analysis time [seconds]
   610.000  Usable output time [seconds]
   140.000  Hub height [m]
   260.000  Grid height [m]
   260.000  Grid width [m]
     0.000  Vertical flow angle [degrees]
     0.000  Horizontal flow angle [degrees]


Meteorological Boundary Conditions:

    IECKAI  IEC Kaimal spectral model
         1  IEC standard: IEC 61400-1 Ed. 3: 2005
         B  IEC turbulence characteristic
      3ETM  IEC Extreme Turbulence Model
     2.000  IEC Extreme Turbulence Model (ETM) "c" parameter [m/s]
       IEC  Wind profile type
   140.000  Reference height [m]
    25.000  Reference wind speed [m/s]
       N/A  Jet height [m]
     0.200  Power law exponent
     0.030  Surface roughness length [m]


You have requested that the following file(s) be generated:

   .\TurbSim.bts (AeroDyn/TurbSim full-field wind file)
   .\TurbSim.wnd (AeroDyn/BLADED full-field wnd file)


Turbulence Simulation Scaling Parameter Summary:

   Turbulence model used                            =  IEC Kaimal
   Turbulence characteristic                        =  3B
   IEC turbulence type                              =  Extreme Turbulence Model
   Reference wind speed average over 10 minutes     =   37.500 m/s
   Annual wind speed average at hub height          =    7.500 m/s
   IEC standard                                     =  IEC 61400-1 Ed. 3: 2005
   Mean wind speed at hub height                    =   25.000 m/s
   Expected value of turbulence intensity at 15 m/s =   14.000%
   Characteristic value of standard deviation       =    3.957 m/s
   Turbulence scale                                 =   42.000 m
   u-component integral scale                       =  340.200 m
   Coherency scale                                  =  340.200 m
   Characteristic value of hub turbulence intensity =   15.827%
   Gradient Richardson number                       =    0.000

   Wind profile type                                =  Power law on rotor disk, logarithmic elsewhere
   Power law exponent                               =    0.200
   Mean shear across rotor disk                     =    0.053 (m/s)/m
   Assumed rotor diameter                           =  260.000 m
   Surface roughness length                         =    0.030 m

   Number of time steps in the FFT                  =    13000
   Number of time steps output                      =    12408


Mean Flow Angles:

   Vertical   =   0.0 degrees
   Horizontal =   0.0 degrees

Mean Wind Speed Profile:

   Height    Wind Speed   Horizontal Angle  U-comp (X)   V-comp (Y)   W-comp (Z)
     (m)        (m/s)         (degrees)       (m/s)        (m/s)        (m/s)   
   ------    ----------   ----------------  ----------   ----------   ----------
    270.0       28.51            0.00         28.51         0.00         0.00
    265.0       28.40            0.00         28.40         0.00         0.00
    260.0       28.29            0.00         28.29         0.00         0.00
    255.0       28.19            0.00         28.19         0.00         0.00
    250.0       28.07            0.00         28.07         0.00         0.00
    245.0       27.96            0.00         27.96         0.00         0.00
    240.0       27.85            0.00         27.85         0.00         0.00
    235.0       27.73            0.00         27.73         0.00         0.00
    230.0       27.61            0.00         27.61         0.00         0.00
    225.0       27.49            0.00         27.49         0.00         0.00
    220.0       27.37            0.00         27.37         0.00         0.00
    215.0       27.24            0.00         27.24         0.00         0.00
    210.0       27.11            0.00         27.11         0.00         0.00
    205.0       26.98            0.00         26.98         0.00         0.00
    200.0       26.85            0.00         26.85         0.00         0.00
    195.0       26.71            0.00         26.71         0.00         0.00
    190.0       26.57            0.00         26.57         0.00         0.00
    185.0       26.43            0.00         26.43         0.00         0.00
    180.0       26.29            0.00         26.29         0.00         0.00
    175.0       26.14            0.00         26.14         0.00         0.00
    170.0       25.99            0.00         25.99         0.00         0.00
    165.0       25.84            0.00         25.84         0.00         0.00
    160.0       25.68            0.00         25.68         0.00         0.00
    155.0       25.51            0.00         25.51         0.00         0.00
    150.0       25.35            0.00         25.35         0.00         0.00
    145.0       25.18            0.00         25.18         0.00         0.00
    140.0       25.00            0.00         25.00         0.00         0.00
    135.0       24.82            0.00         24.82         0.00         0.00
    130.0       24.63            0.00         24.63         0.00         0.00
    125.0       24.44            0.00         24.44         0.00         0.00
    120.0       24.24            0.00         24.24         0.00         0.00
    115.0       24.04            0.00         24.04         0.00         0.00
    110.0       23.82            0.00         23.82         0.00         0.00
    105.0       23.60            0.00         23.60         0.00         0.00
    100.0       23.37            0.00         23.37         0.00         0.00
     95.0       23.13            0.00         23.13         0.00         0.00
     90.0       22.89            0.00         22.89         0.00         0.00
     85.0       22.63            0.00         22.63         0.00         0.00
     80.0       22.35            0.00         22.35         0.00         0.00
     75.0       22.07            0.00         22.07         0.00         0.00
     70.0       21.76            0.00         21.76         0.00         0.00
     65.0       21.44            0.00         21.44         0.00         0.00
     60.0       21.10            0.00         21.10         0.00         0.00
     55.0       20.74            0.00         20.74         0.00         0.00
     50.0       20.35            0.00         20.35         0.00         0.00
     45.0       19.92            0.00         19.92         0.00         0.00
     40.0       19.46            0.00         19.46         0.00         0.00
     35.0       18.95            0.00         18.95         0.00         0.00
     30.0       18.37            0.00         18.37         0.00         0.00
     25.0       17.71            0.00         17.71         0.00         0.00
     20.0       16.94            0.00         16.94         0.00         0.00
     15.0       15.99            0.00         15.99         0.00         0.00
     10.0       14.75            0.00         14.75         0.00         0.00


Harvested Random Seeds after Generation of the Random Numbers:

    508955588 K1
            0 K2
