
This summary file was generated by TurbSim (v1.50, 25-Sep-2009) on 15-Nov-2024 at 11:13:50.


Runtime Options:

   6777740  Random seed #1
    RANLUX  Type of random number generator
         F  Output binary HH turbulence parameters?
         F  Output formatted turbulence parameters?
         F  Output AeroDyn HH files?
         T  Output AeroDyn FF files?
         T  Output BLADED FF files?
         F  Output tower data?
         F  Output formatted FF files?
         F  Output coherent turbulence time step file?
         T  Clockwise rotation when looking downwind?
 0 -  NONE  IEC turbulence models scaled to exact specified standard deviation


Turbine/Model Specifications:

        53  Vertical grid-point matrix dimension
        53  Horizontal grid-point matrix dimension
     0.050  Time step [seconds]
   650.000  Analysis time [seconds]
   610.000  Usable output time [seconds]
   140.000  Hub height [m]
   260.000  Grid height [m]
   260.000  Grid width [m]
     0.000  Vertical flow angle [degrees]
     0.000  Horizontal flow angle [degrees]


Meteorological Boundary Conditions:

    IECKAI  IEC Kaimal spectral model
         1  IEC standard: IEC 61400-1 Ed. 3: 2005
         B  IEC turbulence characteristic
      3ETM  IEC Extreme Turbulence Model
     2.000  IEC Extreme Turbulence Model (ETM) "c" parameter [m/s]
       IEC  Wind profile type
   140.000  Reference height [m]
     9.000  Reference wind speed [m/s]
       N/A  Jet height [m]
     0.200  Power law exponent
     0.030  Surface roughness length [m]


You have requested that the following file(s) be generated:

   .\TurbSim.bts (AeroDyn/TurbSim full-field wind file)
   .\TurbSim.wnd (AeroDyn/BLADED full-field wnd file)


Turbulence Simulation Scaling Parameter Summary:

   Turbulence model used                            =  IEC Kaimal
   Turbulence characteristic                        =  3B
   IEC turbulence type                              =  Extreme Turbulence Model
   Reference wind speed average over 10 minutes     =   37.500 m/s
   Annual wind speed average at hub height          =    7.500 m/s
   IEC standard                                     =  IEC 61400-1 Ed. 3: 2005
   Mean wind speed at hub height                    =    9.000 m/s
   Expected value of turbulence intensity at 15 m/s =   14.000%
   Characteristic value of standard deviation       =    2.868 m/s
   Turbulence scale                                 =   42.000 m
   u-component integral scale                       =  340.200 m
   Coherency scale                                  =  340.200 m
   Characteristic value of hub turbulence intensity =   31.867%
   Gradient Richardson number                       =    0.000

   Wind profile type                                =  Power law on rotor disk, logarithmic elsewhere
   Power law exponent                               =    0.200
   Mean shear across rotor disk                     =    0.019 (m/s)/m
   Assumed rotor diameter                           =  260.000 m
   Surface roughness length                         =    0.030 m

   Number of time steps in the FFT                  =    13000
   Number of time steps output                      =    12778


Mean Flow Angles:

   Vertical   =   0.0 degrees
   Horizontal =   0.0 degrees

Mean Wind Speed Profile:

   Height    Wind Speed   Horizontal Angle  U-comp (X)   V-comp (Y)   W-comp (Z)
     (m)        (m/s)         (degrees)       (m/s)        (m/s)        (m/s)   
   ------    ----------   ----------------  ----------   ----------   ----------
    270.0       10.26            0.00         10.26         0.00         0.00
    265.0       10.23            0.00         10.23         0.00         0.00
    260.0       10.19            0.00         10.19         0.00         0.00
    255.0       10.15            0.00         10.15         0.00         0.00
    250.0       10.11            0.00         10.11         0.00         0.00
    245.0       10.07            0.00         10.07         0.00         0.00
    240.0       10.02            0.00         10.02         0.00         0.00
    235.0        9.98            0.00          9.98         0.00         0.00
    230.0        9.94            0.00          9.94         0.00         0.00
    225.0        9.90            0.00          9.90         0.00         0.00
    220.0        9.85            0.00          9.85         0.00         0.00
    215.0        9.81            0.00          9.81         0.00         0.00
    210.0        9.76            0.00          9.76         0.00         0.00
    205.0        9.71            0.00          9.71         0.00         0.00
    200.0        9.67            0.00          9.67         0.00         0.00
    195.0        9.62            0.00          9.62         0.00         0.00
    190.0        9.57            0.00          9.57         0.00         0.00
    185.0        9.52            0.00          9.52         0.00         0.00
    180.0        9.46            0.00          9.46         0.00         0.00
    175.0        9.41            0.00          9.41         0.00         0.00
    170.0        9.36            0.00          9.36         0.00         0.00
    165.0        9.30            0.00          9.30         0.00         0.00
    160.0        9.24            0.00          9.24         0.00         0.00
    155.0        9.19            0.00          9.19         0.00         0.00
    150.0        9.13            0.00          9.13         0.00         0.00
    145.0        9.06            0.00          9.06         0.00         0.00
    140.0        9.00            0.00          9.00         0.00         0.00
    135.0        8.93            0.00          8.93         0.00         0.00
    130.0        8.87            0.00          8.87         0.00         0.00
    125.0        8.80            0.00          8.80         0.00         0.00
    120.0        8.73            0.00          8.73         0.00         0.00
    115.0        8.65            0.00          8.65         0.00         0.00
    110.0        8.58            0.00          8.58         0.00         0.00
    105.0        8.50            0.00          8.50         0.00         0.00
    100.0        8.41            0.00          8.41         0.00         0.00
     95.0        8.33            0.00          8.33         0.00         0.00
     90.0        8.24            0.00          8.24         0.00         0.00
     85.0        8.15            0.00          8.15         0.00         0.00
     80.0        8.05            0.00          8.05         0.00         0.00
     75.0        7.94            0.00          7.94         0.00         0.00
     70.0        7.83            0.00          7.83         0.00         0.00
     65.0        7.72            0.00          7.72         0.00         0.00
     60.0        7.60            0.00          7.60         0.00         0.00
     55.0        7.47            0.00          7.47         0.00         0.00
     50.0        7.33            0.00          7.33         0.00         0.00
     45.0        7.17            0.00          7.17         0.00         0.00
     40.0        7.01            0.00          7.01         0.00         0.00
     35.0        6.82            0.00          6.82         0.00         0.00
     30.0        6.61            0.00          6.61         0.00         0.00
     25.0        6.38            0.00          6.38         0.00         0.00
     20.0        6.10            0.00          6.10         0.00         0.00
     15.0        5.76            0.00          5.76         0.00         0.00
     10.0        5.31            0.00          5.31         0.00         0.00


Harvested Random Seeds after Generation of the Random Numbers:

    508955588 K1
            0 K2


Hub-Height Simulated Turbulence Statistical Summary:

   Type of Wind        Min (m/s)   Mean (m/s)    Max (m/s)  Sigma (m/s)       TI (%)
   ----------------    ---------   ----------    ---------  -----------       ------
   Longitudinal (u)         1.47         9.00        15.53        2.036       22.619
   Lateral (v)             -6.87         0.00         7.26        2.237       24.854
   Vertical (w)            -5.52         0.00         5.82        1.405       15.611
   U component              1.47         9.00        15.53        2.036       22.619
   V component             -6.87         0.00         7.26        2.237       24.854
   W component             -5.52         0.00         5.82        1.405       15.611
   Horizontal (U&V)         1.50         9.28        15.88        2.017       21.743
   Total                    1.81         9.39        16.04        2.009       21.402

                       Min Reynolds     Mean Reynolds    Max Reynolds    Correlation
   Product             Stress (m/s)^2   Stress (m/s)^2   Stress (m/s)^2  Coefficient
   ----------------    --------------   --------------   --------------  -----------
   u'w'                    -17.185             0.004            16.759         0.001
   u'v'                    -26.599            -0.529            34.937        -0.116
   v'w'                    -17.231            -0.053            18.252        -0.017


   Friction Velocity (Ustar)  =      0.062 m/s
   Maximum Instantaneous TKE  =     37.673 (m/s)^2
   Maximum Instantaneous CTKE =     19.865 (m/s)^2


Grid Point Variance Summary:

   Y-coord -130.00 -125.00 -120.00 -115.00 -110.00 -105.00 -100.00  -95.00  -90.00  -85.00  -80.00  -75.00  -70.00  -65.00  -60.00  -55.00  -50.00  -45.00  -40.00  -35.00  -30.00  -25.00  -20.00  -15.00  -10.00   -5.00    0.00    5.00   10.00   15.00   20.00   25.00   30.00   35.00   40.00   45.00   50.00   55.00   60.00   65.00   70.00   75.00   80.00   85.00   90.00   95.00  100.00  105.00  110.00  115.00  120.00  125.00  130.00

   Height   Standard deviation at grid points for the u component:
   270.00    3.509   3.280   3.202   3.384   3.439   3.334   3.441   3.337   3.498   3.460   3.480   3.365   3.277   3.062   3.032   3.014   3.268   3.089   2.991   2.982   2.802   2.822   2.737   2.613   2.755   2.692   2.638   2.592   2.524   2.374   2.342   2.404   2.324   2.194   2.168   2.163   2.045   2.091   2.147   2.153   2.176   2.246   2.330   2.329   2.453   2.346   2.477   2.376   2.234   2.290   2.193   2.243   2.414
   265.00    3.419   3.221   3.270   3.350   3.130   3.316   3.239   3.469   3.510   3.483   3.408   3.587   3.443   3.239   2.840   2.983   3.087   3.102   3.107   3.104   2.926   2.875   2.711   2.576   2.636   2.701   2.707   2.672   2.551   2.440   2.354   2.350   2.366   2.162   2.144   2.203   2.066   2.022   2.075   2.215   2.279   2.267   2.353   2.290   2.339   2.320   2.178   2.289   2.278   2.189   2.147   2.299   2.270
   260.00    3.403   3.262   3.103   3.093   3.027   3.230   3.359   3.602   3.535   3.536   3.510   3.552   3.408   3.195   3.012   3.023   2.957   2.902   2.940   2.942   2.883   2.835   2.561   2.411   2.545   2.629   2.751   2.557   2.342   2.338   2.362   2.318   2.123   2.127   2.101   2.098   2.134   2.236   2.202   2.122   2.148   2.213   2.205   2.312   2.349   2.258   2.208   2.284   2.259   2.340   2.364   2.271   2.459
   255.00    3.217   3.224   3.104   3.113   3.345   3.401   3.502   3.473   3.656   3.676   3.609   3.529   3.241   3.094   3.202   3.077   2.858   2.829   2.892   2.835   2.772   2.705   2.618   2.423   2.532   2.539   2.509   2.442   2.366   2.287   2.311   2.194   2.213   2.166   2.167   2.136   2.087   2.065   2.106   2.124   2.230   2.352   2.246   2.296   2.327   2.309   2.180   2.367   2.395   2.314   2.445   2.331   2.391
   250.00    3.351   3.347   3.294   3.290   3.498   3.617   3.614   3.603   3.670   3.509   3.310   3.398   3.320   3.323   3.397   3.205   2.966   2.919   2.889   2.831   2.722   2.609   2.646   2.699   2.498   2.422   2.377   2.474   2.411   2.383   2.241   2.311   2.289   2.161   2.089   2.211   2.219   2.087   2.042   2.200   2.352   2.378   2.503   2.469   2.537   2.383   2.188   2.287   2.344   2.239   2.271   2.287   2.393
   245.00    3.353   3.399   3.458   3.678   3.566   3.672   3.671   3.489   3.542   3.516   3.343   3.354   3.289   3.289   3.303   2.999   2.964   2.938   2.797   2.572   2.578   2.501   2.591   2.520   2.347   2.402   2.515   2.627   2.333   2.388   2.283   2.383   2.237   2.050   2.027   2.192   2.094   2.127   2.215   2.212   2.306   2.399   2.384   2.526   2.573   2.424   2.300   2.283   2.254   2.241   2.398   2.225   2.284
   240.00    3.261   3.146   3.245   3.481   3.641   3.675   3.412   3.569   3.570   3.302   3.335   3.264   3.164   3.173   3.078   2.987   3.025   2.816   2.652   2.691   2.550   2.366   2.369   2.452   2.299   2.374   2.440   2.544   2.502   2.458   2.348   2.341   2.206   2.156   2.162   2.145   2.143   2.220   2.276   2.369   2.342   2.385   2.393   2.468   2.458   2.530   2.320   2.296   2.234   2.319   2.342   2.290   2.264
   235.00    2.962   2.914   3.059   3.215   3.438   3.620   3.413   3.558   3.445   3.300   3.171   3.198   3.210   3.036   3.230   3.047   2.978   2.928   2.707   2.515   2.383   2.310   2.258   2.328   2.526   2.493   2.485   2.521   2.360   2.344   2.290   2.236   2.197   2.210   2.128   2.247   2.202   2.437   2.414   2.450   2.457   2.422   2.475   2.471   2.471   2.412   2.249   2.199   2.201   2.238   2.138   2.071   2.145
   230.00    3.013   2.983   3.180   3.148   3.400   3.458   3.556   3.498   3.344   3.206   3.216   3.424   3.326   3.228   3.134   3.035   2.988   2.762   2.807   2.674   2.476   2.430   2.352   2.380   2.343   2.280   2.341   2.450   2.406   2.429   2.324   2.298   2.328   2.372   2.317   2.312   2.456   2.431   2.506   2.408   2.449   2.476   2.421   2.444   2.377   2.268   2.309   2.244   2.209   2.269   2.095   2.105   2.081
   225.00    2.909   2.925   3.036   3.127   3.233   3.340   3.498   3.631   3.414   3.389   3.242   3.398   3.171   3.177   3.014   3.199   2.977   3.001   2.835   2.734   2.610   2.541   2.509   2.343   2.419   2.379   2.371   2.351   2.477   2.487   2.395   2.304   2.433   2.376   2.168   2.305   2.328   2.358   2.507   2.483   2.456   2.420   2.391   2.343   2.211   2.290   2.463   2.407   2.297   2.291   2.171   2.200   2.265
   220.00    2.994   3.041   3.207   3.244   3.334   3.541   3.536   3.630   3.528   3.329   3.231   3.218   3.136   3.148   3.132   3.234   3.127   2.931   2.751   2.825   2.466   2.315   2.313   2.172   2.232   2.225   2.426   2.415   2.441   2.525   2.430   2.635   2.487   2.185   2.183   2.264   2.460   2.405   2.507   2.596   2.461   2.471   2.536   2.306   2.530   2.494   2.543   2.530   2.470   2.396   2.444   2.468   2.346
   215.00    2.879   2.909   2.988   3.238   3.408   3.272   3.340   3.451   3.512   3.305   3.240   2.945   2.912   3.089   3.168   3.155   2.987   2.754   2.807   2.775   2.525   2.273   2.364   2.241   2.147   2.220   2.443   2.541   2.530   2.510   2.666   2.692   2.504   2.254   2.380   2.367   2.451   2.491   2.604   2.439   2.570   2.490   2.524   2.584   2.593   2.523   2.463   2.383   2.373   2.367   2.393   2.432   2.405
   210.00    2.896   2.909   3.001   3.268   3.236   3.241   3.385   3.417   3.507   3.429   3.383   3.034   2.865   2.927   3.077   3.091   2.879   2.948   2.657   2.604   2.479   2.293   2.439   2.407   2.218   2.385   2.503   2.523   2.434   2.666   2.772   2.702   2.646   2.642   2.426   2.510   2.316   2.406   2.439   2.315   2.554   2.546   2.550   2.466   2.674   2.517   2.542   2.167   2.152   2.296   2.340   2.386   2.454
   205.00    2.790   2.980   2.796   2.923   3.191   3.070   3.137   3.372   3.228   3.184   3.170   3.047   2.984   2.871   2.998   2.963   2.851   2.694   2.668   2.572   2.410   2.436   2.486   2.335   2.394   2.537   2.702   2.674   2.582   2.728   2.495   2.628   2.498   2.527   2.526   2.439   2.340   2.474   2.496   2.488   2.488   2.431   2.481   2.428   2.462   2.500   2.288   2.263   2.216   2.238   2.357   2.406   2.360
   200.00    2.895   3.034   2.913   2.993   2.979   3.019   3.194   3.209   3.018   2.826   2.915   2.973   2.954   2.802   2.855   2.804   2.635   2.553   2.604   2.426   2.446   2.363   2.440   2.412   2.405   2.609   2.686   2.704   2.628   2.614   2.754   2.492   2.616   2.530   2.612   2.487   2.367   2.510   2.474   2.628   2.516   2.506   2.410   2.407   2.410   2.368   2.341   2.269   2.264   2.346   2.421   2.409   2.304
   195.00    3.167   3.255   2.913   3.047   3.051   3.078   3.011   3.006   2.911   2.782   2.751   2.888   2.966   2.882   2.763   2.693   2.589   2.501   2.509   2.588   2.563   2.380   2.287   2.313   2.500   2.356   2.533   2.635   2.709   2.640   2.677   2.651   2.616   2.530   2.450   2.521   2.399   2.432   2.536   2.683   2.572   2.521   2.531   2.395   2.514   2.438   2.466   2.410   2.531   2.542   2.377   2.392   2.251
   190.00    2.993   3.208   2.993   2.933   2.952   2.807   2.807   2.680   2.817   2.799   2.755   2.726   2.851   2.917   2.758   2.727   2.575   2.620   2.510   2.509   2.522   2.328   2.261   2.262   2.458   2.378   2.589   2.637   2.681   2.627   2.505   2.570   2.414   2.403   2.463   2.386   2.271   2.214   2.366   2.462   2.337   2.518   2.657   2.510   2.600   2.574   2.460   2.399   2.612   2.470   2.277   2.243   2.190
   185.00    3.082   3.034   2.844   2.768   2.758   2.843   2.865   2.701   2.773   2.688   2.595   2.859   3.044   2.859   2.689   2.673   2.534   2.541   2.339   2.379   2.446   2.441   2.274   2.199   2.208   2.440   2.605   2.484   2.755   2.672   2.712   2.490   2.542   2.356   2.432   2.326   2.150   2.215   2.270   2.568   2.546   2.565   2.625   2.655   2.489   2.459   2.343   2.486   2.546   2.510   2.442   2.170   2.119
   180.00    3.125   2.864   2.920   3.115   2.868   2.901   2.758   2.792   2.883   2.955   2.864   2.925   3.094   2.989   3.031   2.971   2.787   2.674   2.490   2.338   2.287   2.481   2.391   2.326   2.386   2.529   2.441   2.397   2.624   2.729   2.703   2.467   2.235   2.317   2.391   2.357   2.206   2.116   2.356   2.548   2.733   2.762   2.512   2.466   2.488   2.256   2.367   2.689   2.490   2.385   2.420   2.424   2.362
   175.00    2.953   2.969   2.985   3.116   2.998   2.905   2.922   2.807   2.868   2.999   3.030   2.930   2.939   2.948   3.064   2.997   2.939   2.786   2.643   2.648   2.455   2.499   2.448   2.348   2.328   2.472   2.501   2.282   2.534   2.656   2.498   2.436   2.319   2.347   2.233   2.338   2.269   2.228   2.351   2.459   2.566   2.628   2.453   2.442   2.492   2.378   2.339   2.460   2.361   2.299   2.396   2.313   2.349
   170.00    2.913   2.943   3.117   3.118   3.223   3.023   2.964   2.883   3.026   3.096   2.988   2.834   3.107   3.099   3.041   2.877   2.722   2.862   2.611   2.619   2.426   2.538   2.520   2.354   2.319   2.334   2.282   2.347   2.456   2.366   2.369   2.296   2.335   2.346   2.245   2.212   2.186   2.263   2.273   2.312   2.418   2.395   2.436   2.341   2.283   2.383   2.227   2.322   2.219   2.222   2.218   2.257   2.251
   165.00    2.918   2.857   3.077   3.054   3.281   3.153   3.145   2.861   3.026   2.944   2.880   3.014   3.191   3.043   3.094   2.890   2.786   2.738   2.884   2.737   2.573   2.454   2.589   2.441   2.433   2.401   2.360   2.355   2.203   2.292   2.293   2.263   2.148   2.268   2.295   2.208   2.095   2.209   2.246   2.304   2.412   2.443   2.366   2.514   2.366   2.440   2.345   2.269   2.313   2.193   2.327   2.211   2.201
   160.00    3.161   2.951   3.036   3.142   3.202   3.110   3.076   2.916   2.829   2.828   2.882   3.087   3.027   3.017   3.191   2.961   2.943   2.911   2.791   2.764   2.728   2.691   2.442   2.474   2.499   2.376   2.309   2.254   2.199   2.318   2.351   2.221   2.233   2.225   2.289   2.285   2.199   2.137   2.154   2.295   2.413   2.352   2.430   2.458   2.318   2.328   2.241   2.186   2.276   2.307   2.223   2.417   2.449
   155.00    3.103   2.990   2.910   3.027   2.849   2.962   3.029   3.044   2.790   3.024   2.976   3.085   3.123   3.175   3.296   3.122   3.195   3.226   3.084   2.934   2.916   2.681   2.387   2.374   2.329   2.228   2.174   2.183   2.198   2.352   2.351   2.231   2.189   2.388   2.188   2.159   2.209   2.292   2.272   2.246   2.257   2.321   2.259   2.330   2.393   2.248   2.100   2.166   2.189   2.332   2.306   2.416   2.367
   150.00    2.991   2.893   2.612   2.624   2.846   2.781   3.140   2.943   2.825   3.102   3.068   3.334   3.039   3.153   3.191   3.080   3.070   3.019   3.006   2.830   2.810   2.565   2.365   2.207   2.115   2.141   2.131   2.196   2.428   2.494   2.505   2.347   2.294   2.361   2.125   2.033   2.270   2.289   2.315   2.344   2.194   2.209   2.247   2.151   2.194   2.278   2.269   2.175   2.298   2.435   2.235   2.505   2.549
   145.00    3.049   2.864   2.711   2.522   2.636   2.934   2.984   2.980   3.056   3.109   3.102   3.102   3.215   2.921   2.921   2.844   3.069   2.942   2.879   2.726   2.548   2.554   2.375   2.299   2.106   2.007   1.994   2.118   2.271   2.415   2.582   2.530   2.449   2.427   2.203   2.130   2.268   2.426   2.493   2.436   2.388   2.310   2.146   2.167   2.240   2.167   2.232   2.253   2.314   2.370   2.498   2.346   2.493
   140.00    2.759   2.934   2.903   2.829   2.948   2.952   2.902   2.856   2.891   2.994   3.063   3.002   2.938   2.785   2.787   2.783   2.800   2.870   2.760   2.606   2.592   2.493   2.394   2.225   1.977   1.854   2.036   1.999   2.083   2.297   2.433   2.334   2.343   2.206   2.237   2.131   2.255   2.341   2.427   2.572   2.400   2.270   2.276   2.146   2.251   2.163   2.311   2.288   2.361   2.516   2.358   2.383   2.387
   135.00    2.701   2.851   2.978   2.940   2.756   2.764   2.804   2.903   2.786   2.906   2.958   2.968   2.847   2.671   2.502   2.668   2.786   2.660   2.714   2.750   2.825   2.652   2.479   2.197   1.973   2.025   2.058   1.989   2.030   2.117   2.307   2.487   2.311   2.307   2.179   2.124   2.128   2.228   2.487   2.522   2.557   2.367   2.352   2.137   2.223   2.380   2.472   2.467   2.506   2.403   2.397   2.436   2.481
   130.00    2.671   2.769   2.783   2.725   2.756   2.630   2.675   2.614   2.613   2.649   2.804   2.796   2.500   2.561   2.783   2.773   2.622   2.744   2.797   2.761   2.723   2.717   2.607   2.242   2.055   2.050   2.115   2.039   2.080   2.014   2.154   2.322   2.474   2.282   2.168   2.007   2.067   2.075   2.314   2.438   2.502   2.483   2.347   2.357   2.318   2.459   2.602   2.623   2.439   2.503   2.407   2.605   2.541
   125.00    2.709   2.640   2.687   2.662   2.647   2.479   2.425   2.419   2.342   2.504   2.604   2.500   2.453   2.659   2.673   2.636   2.642   2.707   2.674   2.650   2.790   2.749   2.721   2.552   2.305   2.256   2.160   2.205   2.310   2.214   2.032   2.179   2.409   2.196   2.189   2.088   2.001   2.172   2.359   2.440   2.425   2.308   2.189   2.204   2.254   2.390   2.610   2.636   2.631   2.735   2.717   2.714   2.546
   120.00    2.782   2.541   2.591   2.629   2.549   2.451   2.381   2.354   2.347   2.397   2.449   2.528   2.273   2.465   2.577   2.760   2.625   2.626   2.589   2.556   2.657   2.669   2.484   2.441   2.193   2.205   2.286   2.287   2.299   2.288   2.315   2.365   2.369   2.151   2.099   2.230   2.211   2.201   2.385   2.470   2.367   2.222   2.107   2.226   2.316   2.365   2.620   2.621   2.730   2.811   2.915   2.846   2.676
   115.00    2.687   2.728   2.563   2.647   2.538   2.557   2.408   2.215   2.231   2.296   2.406   2.378   2.344   2.565   2.524   2.606   2.807   2.706   2.612   2.627   2.570   2.628   2.484   2.331   2.265   2.129   2.153   2.414   2.416   2.434   2.395   2.440   2.250   2.291   2.281   2.203   2.270   2.397   2.482   2.515   2.394   2.331   2.173   2.240   2.287   2.588   2.781   2.614   2.808   2.960   2.836   2.690   2.518
   110.00    2.532   2.705   2.615   2.502   2.486   2.454   2.216   2.184   2.228   2.227   2.368   2.318   2.394   2.480   2.595   2.495   2.565   2.682   2.525   2.632   2.599   2.588   2.607   2.269   2.055   2.074   2.132   2.220   2.425   2.473   2.453   2.388   2.462   2.317   2.357   2.225   2.141   2.178   2.326   2.392   2.455   2.373   2.297   2.290   2.195   2.354   2.580   2.643   2.848   2.788   2.962   2.616   2.529
   105.00    2.701   2.823   2.792   2.532   2.625   2.541   2.328   2.391   2.272   2.349   2.323   2.248   2.392   2.477   2.504   2.319   2.350   2.467   2.457   2.671   2.644   2.671   2.562   2.268   2.102   2.051   2.000   2.133   2.342   2.544   2.476   2.515   2.421   2.359   2.436   2.390   2.329   2.276   2.332   2.376   2.430   2.471   2.432   2.423   2.343   2.468   2.608   2.615   2.739   2.784   2.726   2.735   2.582
   100.00    2.927   2.857   2.636   2.651   2.733   2.670   2.564   2.545   2.445   2.338   2.282   2.264   2.232   2.365   2.373   2.316   2.298   2.380   2.278   2.504   2.465   2.546   2.464   2.342   1.984   1.964   2.078   2.075   2.430   2.529   2.397   2.246   2.352   2.507   2.442   2.401   2.380   2.180   2.267   2.166   2.312   2.357   2.228   2.463   2.392   2.534   2.516   2.586   2.728   2.802   2.684   2.613   2.599
    95.00    3.075   2.937   2.829   2.809   2.796   2.697   2.509   2.516   2.520   2.429   2.405   2.443   2.259   2.307   2.261   2.093   2.333   2.290   2.379   2.451   2.525   2.399   2.470   2.219   2.080   2.035   2.164   2.274   2.233   2.399   2.192   2.211   2.346   2.612   2.679   2.536   2.416   2.285   2.257   2.280   2.242   2.345   2.379   2.428   2.289   2.425   2.487   2.566   2.774   2.848   2.763   2.848   2.790
    90.00    3.024   3.047   3.025   2.985   2.852   2.694   2.410   2.334   2.330   2.465   2.326   2.431   2.348   2.347   2.130   2.055   2.153   2.261   2.273   2.421   2.415   2.382   2.355   2.364   2.144   2.143   2.281   2.501   2.508   2.367   2.268   2.195   2.231   2.537   2.652   2.510   2.491   2.401   2.297   2.225   2.240   2.264   2.386   2.605   2.381   2.452   2.636   2.653   2.604   2.838   2.882   2.863   2.772
    85.00    2.816   3.047   3.235   3.166   2.987   2.814   2.763   2.396   2.488   2.506   2.513   2.306   2.370   2.399   2.100   2.058   2.095   2.189   2.280   2.151   2.273   2.559   2.643   2.514   2.407   2.407   2.327   2.326   2.332   2.556   2.412   2.238   2.408   2.553   2.471   2.462   2.503   2.230   2.154   2.169   2.219   2.371   2.478   2.577   2.519   2.364   2.656   2.670   2.697   2.902   2.888   2.735   2.702
    80.00    2.932   2.925   2.925   3.051   2.997   2.712   2.702   2.445   2.461   2.419   2.353   2.351   2.272   2.195   2.101   2.107   2.005   2.164   2.179   2.226   2.342   2.574   2.708   2.620   2.525   2.361   2.502   2.379   2.255   2.463   2.332   2.442   2.413   2.430   2.461   2.463   2.401   2.258   2.389   2.316   2.298   2.315   2.370   2.425   2.496   2.413   2.492   2.716   2.807   2.878   2.845   2.883   2.801
    75.00    2.786   2.731   2.828   2.943   2.805   2.888   2.686   2.649   2.558   2.421   2.500   2.304   2.165   2.137   2.060   2.138   2.174   1.990   2.068   2.241   2.289   2.477   2.541   2.545   2.650   2.576   2.583   2.446   2.300   2.394   2.484   2.385   2.419   2.431   2.294   2.364   2.654   2.434   2.592   2.375   2.314   2.326   2.270   2.461   2.560   2.573   2.571   2.700   2.767   2.753   2.684   2.755   2.762
    70.00    2.978   3.115   2.917   2.871   2.940   2.846   2.887   2.811   2.721   2.732   2.524   2.449   2.352   2.263   2.211   2.229   2.311   2.141   2.098   2.143   2.429   2.332   2.408   2.516   2.504   2.559   2.649   2.533   2.394   2.510   2.514   2.498   2.560   2.456   2.488   2.527   2.565   2.528   2.557   2.426   2.269   2.302   2.251   2.560   2.595   2.577   2.691   2.615   2.669   2.632   2.562   2.573   2.679
    65.00    2.945   3.075   3.067   2.833   2.914   2.899   2.904   2.799   2.784   2.618   2.538   2.426   2.464   2.418   2.337   2.337   2.148   2.149   2.088   2.240   2.489   2.429   2.385   2.342   2.544   2.617   2.653   2.513   2.516   2.400   2.680   2.616   2.547   2.459   2.485   2.489   2.470   2.317   2.362   2.325   2.205   2.308   2.296   2.511   2.594   2.610   2.600   2.594   2.814   2.620   2.518   2.605   2.653
    60.00    3.076   2.942   3.012   2.940   2.990   3.102   2.956   2.889   2.731   2.715   2.660   2.508   2.603   2.246   2.329   2.232   1.994   2.055   2.107   2.434   2.491   2.531   2.265   2.315   2.382   2.612   2.519   2.553   2.564   2.477   2.811   2.758   2.605   2.465   2.503   2.638   2.424   2.335   2.204   2.281   2.257   2.256   2.442   2.462   2.559   2.726   2.665   2.612   2.654   2.729   2.682   2.733   2.521
    55.00    2.950   3.022   2.800   2.950   2.866   2.998   2.852   2.652   2.544   2.566   2.546   2.423   2.482   2.297   2.356   2.242   2.105   2.103   2.147   2.311   2.489   2.415   2.363   2.282   2.291   2.376   2.509   2.484   2.485   2.614   2.818   2.760   2.789   2.610   2.565   2.700   2.419   2.406   2.484   2.428   2.322   2.312   2.419   2.615   2.504   2.554   2.627   2.534   2.619   2.725   2.811   2.686   2.396
    50.00    2.763   2.880   3.018   3.067   2.959   2.873   2.855   2.532   2.580   2.617   2.444   2.396   2.422   2.289   2.201   2.135   2.098   2.089   2.160   2.260   2.415   2.387   2.211   2.336   2.331   2.348   2.375   2.455   2.511   2.657   2.663   2.809   2.960   2.750   2.728   2.658   2.600   2.625   2.614   2.506   2.272   2.226   2.453   2.533   2.558   2.526   2.590   2.601   2.539   2.551   2.745   2.497   2.386
    45.00    2.848   2.857   2.867   2.829   2.823   2.717   2.688   2.509   2.509   2.467   2.480   2.431   2.296   2.226   2.163   2.219   2.101   2.093   2.194   2.276   2.266   2.320   2.358   2.281   2.211   2.354   2.460   2.412   2.545   2.691   2.624   2.775   2.745   2.786   2.787   2.599   2.803   2.613   2.672   2.541   2.527   2.585   2.565   2.505   2.622   2.572   2.456   2.431   2.456   2.434   2.619   2.365   2.339
    40.00    2.627   2.708   2.709   2.527   2.599   2.617   2.393   2.435   2.404   2.292   2.563   2.335   2.279   2.464   2.417   2.264   2.223   2.132   2.315   2.357   2.265   2.362   2.527   2.420   2.340   2.465   2.477   2.485   2.673   2.767   2.685   2.645   2.746   2.886   2.881   2.620   2.696   2.653   2.640   2.648   2.606   2.714   2.680   2.599   2.426   2.529   2.534   2.309   2.367   2.451   2.550   2.351   2.324
    35.00    2.812   2.793   2.664   2.466   2.599   2.651   2.606   2.446   2.313   2.334   2.429   2.513   2.499   2.439   2.312   2.309   2.329   2.284   2.246   2.251   2.277   2.358   2.490   2.524   2.555   2.464   2.391   2.457   2.745   2.645   2.668   2.730   2.921   2.757   2.649   2.762   2.779   2.813   2.786   2.480   2.596   2.702   2.762   2.654   2.556   2.623   2.563   2.396   2.238   2.321   2.351   2.315   2.421
    30.00    2.838   2.952   2.752   2.502   2.689   2.706   2.729   2.679   2.427   2.466   2.414   2.407   2.420   2.326   2.268   2.476   2.333   2.163   2.224   2.322   2.166   2.268   2.463   2.473   2.360   2.150   2.445   2.427   2.657   2.548   2.628   2.816   2.943   2.843   2.583   2.569   2.699   2.760   2.625   2.478   2.574   2.667   2.702   2.692   2.777   2.646   2.552   2.445   2.338   2.610   2.279   2.479   2.452
    25.00    2.707   2.871   2.855   2.675   2.555   2.500   2.615   2.571   2.332   2.283   2.388   2.360   2.421   2.629   2.476   2.538   2.489   2.178   2.249   2.137   2.105   2.212   2.391   2.375   2.230   2.313   2.527   2.434   2.512   2.545   2.580   2.847   2.749   2.790   2.584   2.612   2.607   2.574   2.586   2.499   2.731   2.824   2.613   2.726   2.633   2.531   2.452   2.355   2.515   2.509   2.526   2.527   2.667
    20.00    2.700   2.639   2.810   2.592   2.572   2.659   2.602   2.608   2.504   2.300   2.416   2.504   2.486   2.638   2.625   2.482   2.336   2.292   2.230   2.163   2.262   2.325   2.228   2.275   2.221   2.430   2.456   2.565   2.585   2.380   2.614   2.797   2.720   2.834   2.841   2.832   2.515   2.326   2.411   2.603   2.717   2.881   2.934   2.844   2.665   2.494   2.561   2.472   2.554   2.530   2.554   2.639   2.794
    15.00    2.707   2.604   2.690   2.780   2.793   2.664   2.619   2.722   2.634   2.576   2.551   2.540   2.590   2.743   2.693   2.454   2.366   2.331   2.208   2.104   2.316   2.168   2.373   2.398   2.321   2.362   2.612   2.640   2.574   2.519   2.556   2.590   2.595   2.676   2.648   2.656   2.425   2.540   2.640   2.583   2.680   2.769   2.799   3.065   2.970   2.770   2.722   2.590   2.582   2.437   2.658   2.688   2.711
    10.00    2.704   2.718   2.755   2.942   2.930   2.741   2.750   2.984   2.761   2.694   2.678   2.502   2.436   2.551   2.633   2.382   2.385   2.279   2.227   2.123   2.287   2.412   2.502   2.353   2.366   2.391   2.535   2.687   2.466   2.575   2.571   2.525   2.482   2.528   2.547   2.564   2.320   2.410   2.401   2.568   2.517   2.738   2.860   2.938   2.869   2.964   2.778   2.612   2.411   2.568   2.510   2.493   2.588

   Height   Standard deviation at grid points for the v component:
   270.00    2.237   2.237   2.237   2.237   2.237   2.237   2.237   2.237   2.237   2.237   2.237   2.237   2.237   2.237   2.237   2.237   2.237   2.237   2.237   2.237   2.237   2.237   2.237   2.237   2.237   2.237   2.237   2.237   2.237   2.237   2.237   2.237   2.237   2.237   2.237   2.237   2.237   2.237   2.237   2.237   2.237   2.237   2.237   2.237   2.237   2.237   2.237   2.237   2.237   2.237   2.237   2.237   2.237
   265.00    2.237   2.237   2.237   2.237   2.237   2.237   2.237   2.237   2.237   2.237   2.237   2.237   2.237   2.237   2.237   2.237   2.237   2.237   2.237   2.237   2.237   2.237   2.237   2.237   2.237   2.237   2.237   2.237   2.237   2.237   2.237   2.237   2.237   2.237   2.237   2.237   2.237   2.237   2.237   2.237   2.237   2.237   2.237   2.237   2.237   2.237   2.237   2.237   2.237   2.237   2.237   2.237   2.237
   260.00    2.237   2.237   2.237   2.237   2.237   2.237   2.237   2.237   2.237   2.237   2.237   2.237   2.237   2.237   2.237   2.237   2.237   2.237   2.237   2.237   2.237   2.237   2.237   2.237   2.237   2.237   2.237   2.237   2.237   2.237   2.237   2.237   2.237   2.237   2.237   2.237   2.237   2.237   2.237   2.237   2.237   2.237   2.237   2.237   2.237   2.237   2.237   2.237   2.237   2.237   2.237   2.237   2.237
   255.00    2.237   2.237   2.237   2.237   2.237   2.237   2.237   2.237   2.237   2.237   2.237   2.237   2.237   2.237   2.237   2.237   2.237   2.237   2.237   2.237   2.237   2.237   2.237   2.237   2.237   2.237   2.237   2.237   2.237   2.237   2.237   2.237   2.237   2.237   2.237   2.237   2.237   2.237   2.237   2.237   2.237   2.237   2.237   2.237   2.237   2.237   2.237   2.237   2.237   2.237   2.237   2.237   2.237
   250.00    2.237   2.237   2.237   2.237   2.237   2.237   2.237   2.237   2.237   2.237   2.237   2.237   2.237   2.237   2.237   2.237   2.237   2.237   2.237   2.237   2.237   2.237   2.237   2.237   2.237   2.237   2.237   2.237   2.237   2.237   2.237   2.237   2.237   2.237   2.237   2.237   2.237   2.237   2.237   2.237   2.237   2.237   2.237   2.237   2.237   2.237   2.237   2.237   2.237   2.237   2.237   2.237   2.237
   245.00    2.237   2.237   2.237   2.237   2.237   2.237   2.237   2.237   2.237   2.237   2.237   2.237   2.237   2.237   2.237   2.237   2.237   2.237   2.237   2.237   2.237   2.237   2.237   2.237   2.237   2.237   2.237   2.237   2.237   2.237   2.237   2.237   2.237   2.237   2.237   2.237   2.237   2.237   2.237   2.237   2.237   2.237   2.237   2.237   2.237   2.237   2.237   2.237   2.237   2.237   2.237   2.237   2.237
   240.00    2.237   2.237   2.237   2.237   2.237   2.237   2.237   2.237   2.237   2.237   2.237   2.237   2.237   2.237   2.237   2.237   2.237   2.237   2.237   2.237   2.237   2.237   2.237   2.237   2.237   2.237   2.237   2.237   2.237   2.237   2.237   2.237   2.237   2.237   2.237   2.237   2.237   2.237   2.237   2.237   2.237   2.237   2.237   2.237   2.237   2.237   2.237   2.237   2.237   2.237   2.237   2.237   2.237
   235.00    2.237   2.237   2.237   2.237   2.237   2.237   2.237   2.237   2.237   2.237   2.237   2.237   2.237   2.237   2.237   2.237   2.237   2.237   2.237   2.237   2.237   2.237   2.237   2.237   2.237   2.237   2.237   2.237   2.237   2.237   2.237   2.237   2.237   2.237   2.237   2.237   2.237   2.237   2.237   2.237   2.237   2.237   2.237   2.237   2.237   2.237   2.237   2.237   2.237   2.237   2.237   2.237   2.237
   230.00    2.237   2.237   2.237   2.237   2.237   2.237   2.237   2.237   2.237   2.237   2.237   2.237   2.237   2.237   2.237   2.237   2.237   2.237   2.237   2.237   2.237   2.237   2.237   2.237   2.237   2.237   2.237   2.237   2.237   2.237   2.237   2.237   2.237   2.237   2.237   2.237   2.237   2.237   2.237   2.237   2.237   2.237   2.237   2.237   2.237   2.237   2.237   2.237   2.237   2.237   2.237   2.237   2.237
   225.00    2.237   2.237   2.237   2.237   2.237   2.237   2.237   2.237   2.237   2.237   2.237   2.237   2.237   2.237   2.237   2.237   2.237   2.237   2.237   2.237   2.237   2.237   2.237   2.237   2.237   2.237   2.237   2.237   2.237   2.237   2.237   2.237   2.237   2.237   2.237   2.237   2.237   2.237   2.237   2.237   2.237   2.237   2.237   2.237   2.237   2.237   2.237   2.237   2.237   2.237   2.237   2.237   2.237
   220.00    2.237   2.237   2.237   2.237   2.237   2.237   2.237   2.237   2.237   2.237   2.237   2.237   2.237   2.237   2.237   2.237   2.237   2.237   2.237   2.237   2.237   2.237   2.237   2.237   2.237   2.237   2.237   2.237   2.237   2.237   2.237   2.237   2.237   2.237   2.237   2.237   2.237   2.237   2.237   2.237   2.237   2.237   2.237   2.237   2.237   2.237   2.237   2.237   2.237   2.237   2.237   2.237   2.237
   215.00    2.237   2.237   2.237   2.237   2.237   2.237   2.237   2.237   2.237   2.237   2.237   2.237   2.237   2.237   2.237   2.237   2.237   2.237   2.237   2.237   2.237   2.237   2.237   2.237   2.237   2.237   2.237   2.237   2.237   2.237   2.237   2.237   2.237   2.237   2.237   2.237   2.237   2.237   2.237   2.237   2.237   2.237   2.237   2.237   2.237   2.237   2.237   2.237   2.237   2.237   2.237   2.237   2.237
   210.00    2.237   2.237   2.237   2.237   2.237   2.237   2.237   2.237   2.237   2.237   2.237   2.237   2.237   2.237   2.237   2.237   2.237   2.237   2.237   2.237   2.237   2.237   2.237   2.237   2.237   2.237   2.237   2.237   2.237   2.237   2.237   2.237   2.237   2.237   2.237   2.237   2.237   2.237   2.237   2.237   2.237   2.237   2.237   2.237   2.237   2.237   2.237   2.237   2.237   2.237   2.237   2.237   2.237
   205.00    2.237   2.237   2.237   2.237   2.237   2.237   2.237   2.237   2.237   2.237   2.237   2.237   2.237   2.237   2.237   2.237   2.237   2.237   2.237   2.237   2.237   2.237   2.237   2.237   2.237   2.237   2.237   2.237   2.237   2.237   2.237   2.237   2.237   2.237   2.237   2.237   2.237   2.237   2.237   2.237   2.237   2.237   2.237   2.237   2.237   2.237   2.237   2.237   2.237   2.237   2.237   2.237   2.237
   200.00    2.237   2.237   2.237   2.237   2.237   2.237   2.237   2.237   2.237   2.237   2.237   2.237   2.237   2.237   2.237   2.237   2.237   2.237   2.237   2.237   2.237   2.237   2.237   2.237   2.237   2.237   2.237   2.237   2.237   2.237   2.237   2.237   2.237   2.237   2.237   2.237   2.237   2.237   2.237   2.237   2.237   2.237   2.237   2.237   2.237   2.237   2.237   2.237   2.237   2.237   2.237   2.237   2.237
   195.00    2.237   2.237   2.237   2.237   2.237   2.237   2.237   2.237   2.237   2.237   2.237   2.237   2.237   2.237   2.237   2.237   2.237   2.237   2.237   2.237   2.237   2.237   2.237   2.237   2.237   2.237   2.237   2.237   2.237   2.237   2.237   2.237   2.237   2.237   2.237   2.237   2.237   2.237   2.237   2.237   2.237   2.237   2.237   2.237   2.237   2.237   2.237   2.237   2.237   2.237   2.237   2.237   2.237
   190.00    2.237   2.237   2.237   2.237   2.237   2.237   2.237   2.237   2.237   2.237   2.237   2.237   2.237   2.237   2.237   2.237   2.237   2.237   2.237   2.237   2.237   2.237   2.237   2.237   2.237   2.237   2.237   2.237   2.237   2.237   2.237   2.237   2.237   2.237   2.237   2.237   2.237   2.237   2.237   2.237   2.237   2.237   2.237   2.237   2.237   2.237   2.237   2.237   2.237   2.237   2.237   2.237   2.237
   185.00    2.237   2.237   2.237   2.237   2.237   2.237   2.237   2.237   2.237   2.237   2.237   2.237   2.237   2.237   2.237   2.237   2.237   2.237   2.237   2.237   2.237   2.237   2.237   2.237   2.237   2.237   2.237   2.237   2.237   2.237   2.237   2.237   2.237   2.237   2.237   2.237   2.237   2.237   2.237   2.237   2.237   2.237   2.237   2.237   2.237   2.237   2.237   2.237   2.237   2.237   2.237   2.237   2.237
   180.00    2.237   2.237   2.237   2.237   2.237   2.237   2.237   2.237   2.237   2.237   2.237   2.237   2.237   2.237   2.237   2.237   2.237   2.237   2.237   2.237   2.237   2.237   2.237   2.237   2.237   2.237   2.237   2.237   2.237   2.237   2.237   2.237   2.237   2.237   2.237   2.237   2.237   2.237   2.237   2.237   2.237   2.237   2.237   2.237   2.237   2.237   2.237   2.237   2.237   2.237   2.237   2.237   2.237
   175.00    2.237   2.237   2.237   2.237   2.237   2.237   2.237   2.237   2.237   2.237   2.237   2.237   2.237   2.237   2.237   2.237   2.237   2.237   2.237   2.237   2.237   2.237   2.237   2.237   2.237   2.237   2.237   2.237   2.237   2.237   2.237   2.237   2.237   2.237   2.237   2.237   2.237   2.237   2.237   2.237   2.237   2.237   2.237   2.237   2.237   2.237   2.237   2.237   2.237   2.237   2.237   2.237   2.237
   170.00    2.237   2.237   2.237   2.237   2.237   2.237   2.237   2.237   2.237   2.237   2.237   2.237   2.237   2.237   2.237   2.237   2.237   2.237   2.237   2.237   2.237   2.237   2.237   2.237   2.237   2.237   2.237   2.237   2.237   2.237   2.237   2.237   2.237   2.237   2.237   2.237   2.237   2.237   2.237   2.237   2.237   2.237   2.237   2.237   2.237   2.237   2.237   2.237   2.237   2.237   2.237   2.237   2.237
   165.00    2.237   2.237   2.237   2.237   2.237   2.237   2.237   2.237   2.237   2.237   2.237   2.237   2.237   2.237   2.237   2.237   2.237   2.237   2.237   2.237   2.237   2.237   2.237   2.237   2.237   2.237   2.237   2.237   2.237   2.237   2.237   2.237   2.237   2.237   2.237   2.237   2.237   2.237   2.237   2.237   2.237   2.237   2.237   2.237   2.237   2.237   2.237   2.237   2.237   2.237   2.237   2.237   2.237
   160.00    2.237   2.237   2.237   2.237   2.237   2.237   2.237   2.237   2.237   2.237   2.237   2.237   2.237   2.237   2.237   2.237   2.237   2.237   2.237   2.237   2.237   2.237   2.237   2.237   2.237   2.237   2.237   2.237   2.237   2.237   2.237   2.237   2.237   2.237   2.237   2.237   2.237   2.237   2.237   2.237   2.237   2.237   2.237   2.237   2.237   2.237   2.237   2.237   2.237   2.237   2.237   2.237   2.237
   155.00    2.237   2.237   2.237   2.237   2.237   2.237   2.237   2.237   2.237   2.237   2.237   2.237   2.237   2.237   2.237   2.237   2.237   2.237   2.237   2.237   2.237   2.237   2.237   2.237   2.237   2.237   2.237   2.237   2.237   2.237   2.237   2.237   2.237   2.237   2.237   2.237   2.237   2.237   2.237   2.237   2.237   2.237   2.237   2.237   2.237   2.237   2.237   2.237   2.237   2.237   2.237   2.237   2.237
   150.00    2.237   2.237   2.237   2.237   2.237   2.237   2.237   2.237   2.237   2.237   2.237   2.237   2.237   2.237   2.237   2.237   2.237   2.237   2.237   2.237   2.237   2.237   2.237   2.237   2.237   2.237   2.237   2.237   2.237   2.237   2.237   2.237   2.237   2.237   2.237   2.237   2.237   2.237   2.237   2.237   2.237   2.237   2.237   2.237   2.237   2.237   2.237   2.237   2.237   2.237   2.237   2.237   2.237
   145.00    2.237   2.237   2.237   2.237   2.237   2.237   2.237   2.237   2.237   2.237   2.237   2.237   2.237   2.237   2.237   2.237   2.237   2.237   2.237   2.237   2.237   2.237   2.237   2.237   2.237   2.237   2.237   2.237   2.237   2.237   2.237   2.237   2.237   2.237   2.237   2.237   2.237   2.237   2.237   2.237   2.237   2.237   2.237   2.237   2.237   2.237   2.237   2.237   2.237   2.237   2.237   2.237   2.237
   140.00    2.237   2.237   2.237   2.237   2.237   2.237   2.237   2.237   2.237   2.237   2.237   2.237   2.237   2.237   2.237   2.237   2.237   2.237   2.237   2.237   2.237   2.237   2.237   2.237   2.237   2.237   2.237   2.237   2.237   2.237   2.237   2.237   2.237   2.237   2.237   2.237   2.237   2.237   2.237   2.237   2.237   2.237   2.237   2.237   2.237   2.237   2.237   2.237   2.237   2.237   2.237   2.237   2.237
   135.00    2.237   2.237   2.237   2.237   2.237   2.237   2.237   2.237   2.237   2.237   2.237   2.237   2.237   2.237   2.237   2.237   2.237   2.237   2.237   2.237   2.237   2.237   2.237   2.237   2.237   2.237   2.237   2.237   2.237   2.237   2.237   2.237   2.237   2.237   2.237   2.237   2.237   2.237   2.237   2.237   2.237   2.237   2.237   2.237   2.237   2.237   2.237   2.237   2.237   2.237   2.237   2.237   2.237
   130.00    2.237   2.237   2.237   2.237   2.237   2.237   2.237   2.237   2.237   2.237   2.237   2.237   2.237   2.237   2.237   2.237   2.237   2.237   2.237   2.237   2.237   2.237   2.237   2.237   2.237   2.237   2.237   2.237   2.237   2.237   2.237   2.237   2.237   2.237   2.237   2.237   2.237   2.237   2.237   2.237   2.237   2.237   2.237   2.237   2.237   2.237   2.237   2.237   2.237   2.237   2.237   2.237   2.237
   125.00    2.237   2.237   2.237   2.237   2.237   2.237   2.237   2.237   2.237   2.237   2.237   2.237   2.237   2.237   2.237   2.237   2.237   2.237   2.237   2.237   2.237   2.237   2.237   2.237   2.237   2.237   2.237   2.237   2.237   2.237   2.237   2.237   2.237   2.237   2.237   2.237   2.237   2.237   2.237   2.237   2.237   2.237   2.237   2.237   2.237   2.237   2.237   2.237   2.237   2.237   2.237   2.237   2.237
   120.00    2.237   2.237   2.237   2.237   2.237   2.237   2.237   2.237   2.237   2.237   2.237   2.237   2.237   2.237   2.237   2.237   2.237   2.237   2.237   2.237   2.237   2.237   2.237   2.237   2.237   2.237   2.237   2.237   2.237   2.237   2.237   2.237   2.237   2.237   2.237   2.237   2.237   2.237   2.237   2.237   2.237   2.237   2.237   2.237   2.237   2.237   2.237   2.237   2.237   2.237   2.237   2.237   2.237
   115.00    2.237   2.237   2.237   2.237   2.237   2.237   2.237   2.237   2.237   2.237   2.237   2.237   2.237   2.237   2.237   2.237   2.237   2.237   2.237   2.237   2.237   2.237   2.237   2.237   2.237   2.237   2.237   2.237   2.237   2.237   2.237   2.237   2.237   2.237   2.237   2.237   2.237   2.237   2.237   2.237   2.237   2.237   2.237   2.237   2.237   2.237   2.237   2.237   2.237   2.237   2.237   2.237   2.237
   110.00    2.237   2.237   2.237   2.237   2.237   2.237   2.237   2.237   2.237   2.237   2.237   2.237   2.237   2.237   2.237   2.237   2.237   2.237   2.237   2.237   2.237   2.237   2.237   2.237   2.237   2.237   2.237   2.237   2.237   2.237   2.237   2.237   2.237   2.237   2.237   2.237   2.237   2.237   2.237   2.237   2.237   2.237   2.237   2.237   2.237   2.237   2.237   2.237   2.237   2.237   2.237   2.237   2.237
   105.00    2.237   2.237   2.237   2.237   2.237   2.237   2.237   2.237   2.237   2.237   2.237   2.237   2.237   2.237   2.237   2.237   2.237   2.237   2.237   2.237   2.237   2.237   2.237   2.237   2.237   2.237   2.237   2.237   2.237   2.237   2.237   2.237   2.237   2.237   2.237   2.237   2.237   2.237   2.237   2.237   2.237   2.237   2.237   2.237   2.237   2.237   2.237   2.237   2.237   2.237   2.237   2.237   2.237
   100.00    2.237   2.237   2.237   2.237   2.237   2.237   2.237   2.237   2.237   2.237   2.237   2.237   2.237   2.237   2.237   2.237   2.237   2.237   2.237   2.237   2.237   2.237   2.237   2.237   2.237   2.237   2.237   2.237   2.237   2.237   2.237   2.237   2.237   2.237   2.237   2.237   2.237   2.237   2.237   2.237   2.237   2.237   2.237   2.237   2.237   2.237   2.237   2.237   2.237   2.237   2.237   2.237   2.237
    95.00    2.237   2.237   2.237   2.237   2.237   2.237   2.237   2.237   2.237   2.237   2.237   2.237   2.237   2.237   2.237   2.237   2.237   2.237   2.237   2.237   2.237   2.237   2.237   2.237   2.237   2.237   2.237   2.237   2.237   2.237   2.237   2.237   2.237   2.237   2.237   2.237   2.237   2.237   2.237   2.237   2.237   2.237   2.237   2.237   2.237   2.237   2.237   2.237   2.237   2.237   2.237   2.237   2.237
    90.00    2.237   2.237   2.237   2.237   2.237   2.237   2.237   2.237   2.237   2.237   2.237   2.237   2.237   2.237   2.237   2.237   2.237   2.237   2.237   2.237   2.237   2.237   2.237   2.237   2.237   2.237   2.237   2.237   2.237   2.237   2.237   2.237   2.237   2.237   2.237   2.237   2.237   2.237   2.237   2.237   2.237   2.237   2.237   2.237   2.237   2.237   2.237   2.237   2.237   2.237   2.237   2.237   2.237
    85.00    2.237   2.237   2.237   2.237   2.237   2.237   2.237   2.237   2.237   2.237   2.237   2.237   2.237   2.237   2.237   2.237   2.237   2.237   2.237   2.237   2.237   2.237   2.237   2.237   2.237   2.237   2.237   2.237   2.237   2.237   2.237   2.237   2.237   2.237   2.237   2.237   2.237   2.237   2.237   2.237   2.237   2.237   2.237   2.237   2.237   2.237   2.237   2.237   2.237   2.237   2.237   2.237   2.237
    80.00    2.237   2.237   2.237   2.237   2.237   2.237   2.237   2.237   2.237   2.237   2.237   2.237   2.237   2.237   2.237   2.237   2.237   2.237   2.237   2.237   2.237   2.237   2.237   2.237   2.237   2.237   2.237   2.237   2.237   2.237   2.237   2.237   2.237   2.237   2.237   2.237   2.237   2.237   2.237   2.237   2.237   2.237   2.237   2.237   2.237   2.237   2.237   2.237   2.237   2.237   2.237   2.237   2.237
    75.00    2.237   2.237   2.237   2.237   2.237   2.237   2.237   2.237   2.237   2.237   2.237   2.237   2.237   2.237   2.237   2.237   2.237   2.237   2.237   2.237   2.237   2.237   2.237   2.237   2.237   2.237   2.237   2.237   2.237   2.237   2.237   2.237   2.237   2.237   2.237   2.237   2.237   2.237   2.237   2.237   2.237   2.237   2.237   2.237   2.237   2.237   2.237   2.237   2.237   2.237   2.237   2.237   2.237
    70.00    2.237   2.237   2.237   2.237   2.237   2.237   2.237   2.237   2.237   2.237   2.237   2.237   2.237   2.237   2.237   2.237   2.237   2.237   2.237   2.237   2.237   2.237   2.237   2.237   2.237   2.237   2.237   2.237   2.237   2.237   2.237   2.237   2.237   2.237   2.237   2.237   2.237   2.237   2.237   2.237   2.237   2.237   2.237   2.237   2.237   2.237   2.237   2.237   2.237   2.237   2.237   2.237   2.237
    65.00    2.237   2.237   2.237   2.237   2.237   2.237   2.237   2.237   2.237   2.237   2.237   2.237   2.237   2.237   2.237   2.237   2.237   2.237   2.237   2.237   2.237   2.237   2.237   2.237   2.237   2.237   2.237   2.237   2.237   2.237   2.237   2.237   2.237   2.237   2.237   2.237   2.237   2.237   2.237   2.237   2.237   2.237   2.237   2.237   2.237   2.237   2.237   2.237   2.237   2.237   2.237   2.237   2.237
    60.00    2.237   2.237   2.237   2.237   2.237   2.237   2.237   2.237   2.237   2.237   2.237   2.237   2.237   2.237   2.237   2.237   2.237   2.237   2.237   2.237   2.237   2.237   2.237   2.237   2.237   2.237   2.237   2.237   2.237   2.237   2.237   2.237   2.237   2.237   2.237   2.237   2.237   2.237   2.237   2.237   2.237   2.237   2.237   2.237   2.237   2.237   2.237   2.237   2.237   2.237   2.237   2.237   2.237
    55.00    2.237   2.237   2.237   2.237   2.237   2.237   2.237   2.237   2.237   2.237   2.237   2.237   2.237   2.237   2.237   2.237   2.237   2.237   2.237   2.237   2.237   2.237   2.237   2.237   2.237   2.237   2.237   2.237   2.237   2.237   2.237   2.237   2.237   2.237   2.237   2.237   2.237   2.237   2.237   2.237   2.237   2.237   2.237   2.237   2.237   2.237   2.237   2.237   2.237   2.237   2.237   2.237   2.237
    50.00    2.237   2.237   2.237   2.237   2.237   2.237   2.237   2.237   2.237   2.237   2.237   2.237   2.237   2.237   2.237   2.237   2.237   2.237   2.237   2.237   2.237   2.237   2.237   2.237   2.237   2.237   2.237   2.237   2.237   2.237   2.237   2.237   2.237   2.237   2.237   2.237   2.237   2.237   2.237   2.237   2.237   2.237   2.237   2.237   2.237   2.237   2.237   2.237   2.237   2.237   2.237   2.237   2.237
    45.00    2.237   2.237   2.237   2.237   2.237   2.237   2.237   2.237   2.237   2.237   2.237   2.237   2.237   2.237   2.237   2.237   2.237   2.237   2.237   2.237   2.237   2.237   2.237   2.237   2.237   2.237   2.237   2.237   2.237   2.237   2.237   2.237   2.237   2.237   2.237   2.237   2.237   2.237   2.237   2.237   2.237   2.237   2.237   2.237   2.237   2.237   2.237   2.237   2.237   2.237   2.237   2.237   2.237
    40.00    2.237   2.237   2.237   2.237   2.237   2.237   2.237   2.237   2.237   2.237   2.237   2.237   2.237   2.237   2.237   2.237   2.237   2.237   2.237   2.237   2.237   2.237   2.237   2.237   2.237   2.237   2.237   2.237   2.237   2.237   2.237   2.237   2.237   2.237   2.237   2.237   2.237   2.237   2.237   2.237   2.237   2.237   2.237   2.237   2.237   2.237   2.237   2.237   2.237   2.237   2.237   2.237   2.237
    35.00    2.237   2.237   2.237   2.237   2.237   2.237   2.237   2.237   2.237   2.237   2.237   2.237   2.237   2.237   2.237   2.237   2.237   2.237   2.237   2.237   2.237   2.237   2.237   2.237   2.237   2.237   2.237   2.237   2.237   2.237   2.237   2.237   2.237   2.237   2.237   2.237   2.237   2.237   2.237   2.237   2.237   2.237   2.237   2.237   2.237   2.237   2.237   2.237   2.237   2.237   2.237   2.237   2.237
    30.00    2.237   2.237   2.237   2.237   2.237   2.237   2.237   2.237   2.237   2.237   2.237   2.237   2.237   2.237   2.237   2.237   2.237   2.237   2.237   2.237   2.237   2.237   2.237   2.237   2.237   2.237   2.237   2.237   2.237   2.237   2.237   2.237   2.237   2.237   2.237   2.237   2.237   2.237   2.237   2.237   2.237   2.237   2.237   2.237   2.237   2.237   2.237   2.237   2.237   2.237   2.237   2.237   2.237
    25.00    2.237   2.237   2.237   2.237   2.237   2.237   2.237   2.237   2.237   2.237   2.237   2.237   2.237   2.237   2.237   2.237   2.237   2.237   2.237   2.237   2.237   2.237   2.237   2.237   2.237   2.237   2.237   2.237   2.237   2.237   2.237   2.237   2.237   2.237   2.237   2.237   2.237   2.237   2.237   2.237   2.237   2.237   2.237   2.237   2.237   2.237   2.237   2.237   2.237   2.237   2.237   2.237   2.237
    20.00    2.237   2.237   2.237   2.237   2.237   2.237   2.237   2.237   2.237   2.237   2.237   2.237   2.237   2.237   2.237   2.237   2.237   2.237   2.237   2.237   2.237   2.237   2.237   2.237   2.237   2.237   2.237   2.237   2.237   2.237   2.237   2.237   2.237   2.237   2.237   2.237   2.237   2.237   2.237   2.237   2.237   2.237   2.237   2.237   2.237   2.237   2.237   2.237   2.237   2.237   2.237   2.237   2.237
    15.00    2.237   2.237   2.237   2.237   2.237   2.237   2.237   2.237   2.237   2.237   2.237   2.237   2.237   2.237   2.237   2.237   2.237   2.237   2.237   2.237   2.237   2.237   2.237   2.237   2.237   2.237   2.237   2.237   2.237   2.237   2.237   2.237   2.237   2.237   2.237   2.237   2.237   2.237   2.237   2.237   2.237   2.237   2.237   2.237   2.237   2.237   2.237   2.237   2.237   2.237   2.237   2.237   2.237
    10.00    2.237   2.237   2.237   2.237   2.237   2.237   2.237   2.237   2.237   2.237   2.237   2.237   2.237   2.237   2.237   2.237   2.237   2.237   2.237   2.237   2.237   2.237   2.237   2.237   2.237   2.237   2.237   2.237   2.237   2.237   2.237   2.237   2.237   2.237   2.237   2.237   2.237   2.237   2.237   2.237   2.237   2.237   2.237   2.237   2.237   2.237   2.237   2.237   2.237   2.237   2.237   2.237   2.237

   Height   Standard deviation at grid points for the w component:
   270.00    1.405   1.405   1.405   1.405   1.405   1.405   1.405   1.405   1.405   1.405   1.405   1.405   1.405   1.405   1.405   1.405   1.405   1.405   1.405   1.405   1.405   1.405   1.405   1.405   1.405   1.405   1.405   1.405   1.405   1.405   1.405   1.405   1.405   1.405   1.405   1.405   1.405   1.405   1.405   1.405   1.405   1.405   1.405   1.405   1.405   1.405   1.405   1.405   1.405   1.405   1.405   1.405   1.405
   265.00    1.405   1.405   1.405   1.405   1.405   1.405   1.405   1.405   1.405   1.405   1.405   1.405   1.405   1.405   1.405   1.405   1.405   1.405   1.405   1.405   1.405   1.405   1.405   1.405   1.405   1.405   1.405   1.405   1.405   1.405   1.405   1.405   1.405   1.405   1.405   1.405   1.405   1.405   1.405   1.405   1.405   1.405   1.405   1.405   1.405   1.405   1.405   1.405   1.405   1.405   1.405   1.405   1.405
   260.00    1.405   1.405   1.405   1.405   1.405   1.405   1.405   1.405   1.405   1.405   1.405   1.405   1.405   1.405   1.405   1.405   1.405   1.405   1.405   1.405   1.405   1.405   1.405   1.405   1.405   1.405   1.405   1.405   1.405   1.405   1.405   1.405   1.405   1.405   1.405   1.405   1.405   1.405   1.405   1.405   1.405   1.405   1.405   1.405   1.405   1.405   1.405   1.405   1.405   1.405   1.405   1.405   1.405
   255.00    1.405   1.405   1.405   1.405   1.405   1.405   1.405   1.405   1.405   1.405   1.405   1.405   1.405   1.405   1.405   1.405   1.405   1.405   1.405   1.405   1.405   1.405   1.405   1.405   1.405   1.405   1.405   1.405   1.405   1.405   1.405   1.405   1.405   1.405   1.405   1.405   1.405   1.405   1.405   1.405   1.405   1.405   1.405   1.405   1.405   1.405   1.405   1.405   1.405   1.405   1.405   1.405   1.405
   250.00    1.405   1.405   1.405   1.405   1.405   1.405   1.405   1.405   1.405   1.405   1.405   1.405   1.405   1.405   1.405   1.405   1.405   1.405   1.405   1.405   1.405   1.405   1.405   1.405   1.405   1.405   1.405   1.405   1.405   1.405   1.405   1.405   1.405   1.405   1.405   1.405   1.405   1.405   1.405   1.405   1.405   1.405   1.405   1.405   1.405   1.405   1.405   1.405   1.405   1.405   1.405   1.405   1.405
   245.00    1.405   1.405   1.405   1.405   1.405   1.405   1.405   1.405   1.405   1.405   1.405   1.405   1.405   1.405   1.405   1.405   1.405   1.405   1.405   1.405   1.405   1.405   1.405   1.405   1.405   1.405   1.405   1.405   1.405   1.405   1.405   1.405   1.405   1.405   1.405   1.405   1.405   1.405   1.405   1.405   1.405   1.405   1.405   1.405   1.405   1.405   1.405   1.405   1.405   1.405   1.405   1.405   1.405
   240.00    1.405   1.405   1.405   1.405   1.405   1.405   1.405   1.405   1.405   1.405   1.405   1.405   1.405   1.405   1.405   1.405   1.405   1.405   1.405   1.405   1.405   1.405   1.405   1.405   1.405   1.405   1.405   1.405   1.405   1.405   1.405   1.405   1.405   1.405   1.405   1.405   1.405   1.405   1.405   1.405   1.405   1.405   1.405   1.405   1.405   1.405   1.405   1.405   1.405   1.405   1.405   1.405   1.405
   235.00    1.405   1.405   1.405   1.405   1.405   1.405   1.405   1.405   1.405   1.405   1.405   1.405   1.405   1.405   1.405   1.405   1.405   1.405   1.405   1.405   1.405   1.405   1.405   1.405   1.405   1.405   1.405   1.405   1.405   1.405   1.405   1.405   1.405   1.405   1.405   1.405   1.405   1.405   1.405   1.405   1.405   1.405   1.405   1.405   1.405   1.405   1.405   1.405   1.405   1.405   1.405   1.405   1.405
   230.00    1.405   1.405   1.405   1.405   1.405   1.405   1.405   1.405   1.405   1.405   1.405   1.405   1.405   1.405   1.405   1.405   1.405   1.405   1.405   1.405   1.405   1.405   1.405   1.405   1.405   1.405   1.405   1.405   1.405   1.405   1.405   1.405   1.405   1.405   1.405   1.405   1.405   1.405   1.405   1.405   1.405   1.405   1.405   1.405   1.405   1.405   1.405   1.405   1.405   1.405   1.405   1.405   1.405
   225.00    1.405   1.405   1.405   1.405   1.405   1.405   1.405   1.405   1.405   1.405   1.405   1.405   1.405   1.405   1.405   1.405   1.405   1.405   1.405   1.405   1.405   1.405   1.405   1.405   1.405   1.405   1.405   1.405   1.405   1.405   1.405   1.405   1.405   1.405   1.405   1.405   1.405   1.405   1.405   1.405   1.405   1.405   1.405   1.405   1.405   1.405   1.405   1.405   1.405   1.405   1.405   1.405   1.405
   220.00    1.405   1.405   1.405   1.405   1.405   1.405   1.405   1.405   1.405   1.405   1.405   1.405   1.405   1.405   1.405   1.405   1.405   1.405   1.405   1.405   1.405   1.405   1.405   1.405   1.405   1.405   1.405   1.405   1.405   1.405   1.405   1.405   1.405   1.405   1.405   1.405   1.405   1.405   1.405   1.405   1.405   1.405   1.405   1.405   1.405   1.405   1.405   1.405   1.405   1.405   1.405   1.405   1.405
   215.00    1.405   1.405   1.405   1.405   1.405   1.405   1.405   1.405   1.405   1.405   1.405   1.405   1.405   1.405   1.405   1.405   1.405   1.405   1.405   1.405   1.405   1.405   1.405   1.405   1.405   1.405   1.405   1.405   1.405   1.405   1.405   1.405   1.405   1.405   1.405   1.405   1.405   1.405   1.405   1.405   1.405   1.405   1.405   1.405   1.405   1.405   1.405   1.405   1.405   1.405   1.405   1.405   1.405
   210.00    1.405   1.405   1.405   1.405   1.405   1.405   1.405   1.405   1.405   1.405   1.405   1.405   1.405   1.405   1.405   1.405   1.405   1.405   1.405   1.405   1.405   1.405   1.405   1.405   1.405   1.405   1.405   1.405   1.405   1.405   1.405   1.405   1.405   1.405   1.405   1.405   1.405   1.405   1.405   1.405   1.405   1.405   1.405   1.405   1.405   1.405   1.405   1.405   1.405   1.405   1.405   1.405   1.405
   205.00    1.405   1.405   1.405   1.405   1.405   1.405   1.405   1.405   1.405   1.405   1.405   1.405   1.405   1.405   1.405   1.405   1.405   1.405   1.405   1.405   1.405   1.405   1.405   1.405   1.405   1.405   1.405   1.405   1.405   1.405   1.405   1.405   1.405   1.405   1.405   1.405   1.405   1.405   1.405   1.405   1.405   1.405   1.405   1.405   1.405   1.405   1.405   1.405   1.405   1.405   1.405   1.405   1.405
   200.00    1.405   1.405   1.405   1.405   1.405   1.405   1.405   1.405   1.405   1.405   1.405   1.405   1.405   1.405   1.405   1.405   1.405   1.405   1.405   1.405   1.405   1.405   1.405   1.405   1.405   1.405   1.405   1.405   1.405   1.405   1.405   1.405   1.405   1.405   1.405   1.405   1.405   1.405   1.405   1.405   1.405   1.405   1.405   1.405   1.405   1.405   1.405   1.405   1.405   1.405   1.405   1.405   1.405
   195.00    1.405   1.405   1.405   1.405   1.405   1.405   1.405   1.405   1.405   1.405   1.405   1.405   1.405   1.405   1.405   1.405   1.405   1.405   1.405   1.405   1.405   1.405   1.405   1.405   1.405   1.405   1.405   1.405   1.405   1.405   1.405   1.405   1.405   1.405   1.405   1.405   1.405   1.405   1.405   1.405   1.405   1.405   1.405   1.405   1.405   1.405   1.405   1.405   1.405   1.405   1.405   1.405   1.405
   190.00    1.405   1.405   1.405   1.405   1.405   1.405   1.405   1.405   1.405   1.405   1.405   1.405   1.405   1.405   1.405   1.405   1.405   1.405   1.405   1.405   1.405   1.405   1.405   1.405   1.405   1.405   1.405   1.405   1.405   1.405   1.405   1.405   1.405   1.405   1.405   1.405   1.405   1.405   1.405   1.405   1.405   1.405   1.405   1.405   1.405   1.405   1.405   1.405   1.405   1.405   1.405   1.405   1.405
   185.00    1.405   1.405   1.405   1.405   1.405   1.405   1.405   1.405   1.405   1.405   1.405   1.405   1.405   1.405   1.405   1.405   1.405   1.405   1.405   1.405   1.405   1.405   1.405   1.405   1.405   1.405   1.405   1.405   1.405   1.405   1.405   1.405   1.405   1.405   1.405   1.405   1.405   1.405   1.405   1.405   1.405   1.405   1.405   1.405   1.405   1.405   1.405   1.405   1.405   1.405   1.405   1.405   1.405
   180.00    1.405   1.405   1.405   1.405   1.405   1.405   1.405   1.405   1.405   1.405   1.405   1.405   1.405   1.405   1.405   1.405   1.405   1.405   1.405   1.405   1.405   1.405   1.405   1.405   1.405   1.405   1.405   1.405   1.405   1.405   1.405   1.405   1.405   1.405   1.405   1.405   1.405   1.405   1.405   1.405   1.405   1.405   1.405   1.405   1.405   1.405   1.405   1.405   1.405   1.405   1.405   1.405   1.405
   175.00    1.405   1.405   1.405   1.405   1.405   1.405   1.405   1.405   1.405   1.405   1.405   1.405   1.405   1.405   1.405   1.405   1.405   1.405   1.405   1.405   1.405   1.405   1.405   1.405   1.405   1.405   1.405   1.405   1.405   1.405   1.405   1.405   1.405   1.405   1.405   1.405   1.405   1.405   1.405   1.405   1.405   1.405   1.405   1.405   1.405   1.405   1.405   1.405   1.405   1.405   1.405   1.405   1.405
   170.00    1.405   1.405   1.405   1.405   1.405   1.405   1.405   1.405   1.405   1.405   1.405   1.405   1.405   1.405   1.405   1.405   1.405   1.405   1.405   1.405   1.405   1.405   1.405   1.405   1.405   1.405   1.405   1.405   1.405   1.405   1.405   1.405   1.405   1.405   1.405   1.405   1.405   1.405   1.405   1.405   1.405   1.405   1.405   1.405   1.405   1.405   1.405   1.405   1.405   1.405   1.405   1.405   1.405
   165.00    1.405   1.405   1.405   1.405   1.405   1.405   1.405   1.405   1.405   1.405   1.405   1.405   1.405   1.405   1.405   1.405   1.405   1.405   1.405   1.405   1.405   1.405   1.405   1.405   1.405   1.405   1.405   1.405   1.405   1.405   1.405   1.405   1.405   1.405   1.405   1.405   1.405   1.405   1.405   1.405   1.405   1.405   1.405   1.405   1.405   1.405   1.405   1.405   1.405   1.405   1.405   1.405   1.405
   160.00    1.405   1.405   1.405   1.405   1.405   1.405   1.405   1.405   1.405   1.405   1.405   1.405   1.405   1.405   1.405   1.405   1.405   1.405   1.405   1.405   1.405   1.405   1.405   1.405   1.405   1.405   1.405   1.405   1.405   1.405   1.405   1.405   1.405   1.405   1.405   1.405   1.405   1.405   1.405   1.405   1.405   1.405   1.405   1.405   1.405   1.405   1.405   1.405   1.405   1.405   1.405   1.405   1.405
   155.00    1.405   1.405   1.405   1.405   1.405   1.405   1.405   1.405   1.405   1.405   1.405   1.405   1.405   1.405   1.405   1.405   1.405   1.405   1.405   1.405   1.405   1.405   1.405   1.405   1.405   1.405   1.405   1.405   1.405   1.405   1.405   1.405   1.405   1.405   1.405   1.405   1.405   1.405   1.405   1.405   1.405   1.405   1.405   1.405   1.405   1.405   1.405   1.405   1.405   1.405   1.405   1.405   1.405
   150.00    1.405   1.405   1.405   1.405   1.405   1.405   1.405   1.405   1.405   1.405   1.405   1.405   1.405   1.405   1.405   1.405   1.405   1.405   1.405   1.405   1.405   1.405   1.405   1.405   1.405   1.405   1.405   1.405   1.405   1.405   1.405   1.405   1.405   1.405   1.405   1.405   1.405   1.405   1.405   1.405   1.405   1.405   1.405   1.405   1.405   1.405   1.405   1.405   1.405   1.405   1.405   1.405   1.405
   145.00    1.405   1.405   1.405   1.405   1.405   1.405   1.405   1.405   1.405   1.405   1.405   1.405   1.405   1.405   1.405   1.405   1.405   1.405   1.405   1.405   1.405   1.405   1.405   1.405   1.405   1.405   1.405   1.405   1.405   1.405   1.405   1.405   1.405   1.405   1.405   1.405   1.405   1.405   1.405   1.405   1.405   1.405   1.405   1.405   1.405   1.405   1.405   1.405   1.405   1.405   1.405   1.405   1.405
   140.00    1.405   1.405   1.405   1.405   1.405   1.405   1.405   1.405   1.405   1.405   1.405   1.405   1.405   1.405   1.405   1.405   1.405   1.405   1.405   1.405   1.405   1.405   1.405   1.405   1.405   1.405   1.405   1.405   1.405   1.405   1.405   1.405   1.405   1.405   1.405   1.405   1.405   1.405   1.405   1.405   1.405   1.405   1.405   1.405   1.405   1.405   1.405   1.405   1.405   1.405   1.405   1.405   1.405
   135.00    1.405   1.405   1.405   1.405   1.405   1.405   1.405   1.405   1.405   1.405   1.405   1.405   1.405   1.405   1.405   1.405   1.405   1.405   1.405   1.405   1.405   1.405   1.405   1.405   1.405   1.405   1.405   1.405   1.405   1.405   1.405   1.405   1.405   1.405   1.405   1.405   1.405   1.405   1.405   1.405   1.405   1.405   1.405   1.405   1.405   1.405   1.405   1.405   1.405   1.405   1.405   1.405   1.405
   130.00    1.405   1.405   1.405   1.405   1.405   1.405   1.405   1.405   1.405   1.405   1.405   1.405   1.405   1.405   1.405   1.405   1.405   1.405   1.405   1.405   1.405   1.405   1.405   1.405   1.405   1.405   1.405   1.405   1.405   1.405   1.405   1.405   1.405   1.405   1.405   1.405   1.405   1.405   1.405   1.405   1.405   1.405   1.405   1.405   1.405   1.405   1.405   1.405   1.405   1.405   1.405   1.405   1.405
   125.00    1.405   1.405   1.405   1.405   1.405   1.405   1.405   1.405   1.405   1.405   1.405   1.405   1.405   1.405   1.405   1.405   1.405   1.405   1.405   1.405   1.405   1.405   1.405   1.405   1.405   1.405   1.405   1.405   1.405   1.405   1.405   1.405   1.405   1.405   1.405   1.405   1.405   1.405   1.405   1.405   1.405   1.405   1.405   1.405   1.405   1.405   1.405   1.405   1.405   1.405   1.405   1.405   1.405
   120.00    1.405   1.405   1.405   1.405   1.405   1.405   1.405   1.405   1.405   1.405   1.405   1.405   1.405   1.405   1.405   1.405   1.405   1.405   1.405   1.405   1.405   1.405   1.405   1.405   1.405   1.405   1.405   1.405   1.405   1.405   1.405   1.405   1.405   1.405   1.405   1.405   1.405   1.405   1.405   1.405   1.405   1.405   1.405   1.405   1.405   1.405   1.405   1.405   1.405   1.405   1.405   1.405   1.405
   115.00    1.405   1.405   1.405   1.405   1.405   1.405   1.405   1.405   1.405   1.405   1.405   1.405   1.405   1.405   1.405   1.405   1.405   1.405   1.405   1.405   1.405   1.405   1.405   1.405   1.405   1.405   1.405   1.405   1.405   1.405   1.405   1.405   1.405   1.405   1.405   1.405   1.405   1.405   1.405   1.405   1.405   1.405   1.405   1.405   1.405   1.405   1.405   1.405   1.405   1.405   1.405   1.405   1.405
   110.00    1.405   1.405   1.405   1.405   1.405   1.405   1.405   1.405   1.405   1.405   1.405   1.405   1.405   1.405   1.405   1.405   1.405   1.405   1.405   1.405   1.405   1.405   1.405   1.405   1.405   1.405   1.405   1.405   1.405   1.405   1.405   1.405   1.405   1.405   1.405   1.405   1.405   1.405   1.405   1.405   1.405   1.405   1.405   1.405   1.405   1.405   1.405   1.405   1.405   1.405   1.405   1.405   1.405
   105.00    1.405   1.405   1.405   1.405   1.405   1.405   1.405   1.405   1.405   1.405   1.405   1.405   1.405   1.405   1.405   1.405   1.405   1.405   1.405   1.405   1.405   1.405   1.405   1.405   1.405   1.405   1.405   1.405   1.405   1.405   1.405   1.405   1.405   1.405   1.405   1.405   1.405   1.405   1.405   1.405   1.405   1.405   1.405   1.405   1.405   1.405   1.405   1.405   1.405   1.405   1.405   1.405   1.405
   100.00    1.405   1.405   1.405   1.405   1.405   1.405   1.405   1.405   1.405   1.405   1.405   1.405   1.405   1.405   1.405   1.405   1.405   1.405   1.405   1.405   1.405   1.405   1.405   1.405   1.405   1.405   1.405   1.405   1.405   1.405   1.405   1.405   1.405   1.405   1.405   1.405   1.405   1.405   1.405   1.405   1.405   1.405   1.405   1.405   1.405   1.405   1.405   1.405   1.405   1.405   1.405   1.405   1.405
    95.00    1.405   1.405   1.405   1.405   1.405   1.405   1.405   1.405   1.405   1.405   1.405   1.405   1.405   1.405   1.405   1.405   1.405   1.405   1.405   1.405   1.405   1.405   1.405   1.405   1.405   1.405   1.405   1.405   1.405   1.405   1.405   1.405   1.405   1.405   1.405   1.405   1.405   1.405   1.405   1.405   1.405   1.405   1.405   1.405   1.405   1.405   1.405   1.405   1.405   1.405   1.405   1.405   1.405
    90.00    1.405   1.405   1.405   1.405   1.405   1.405   1.405   1.405   1.405   1.405   1.405   1.405   1.405   1.405   1.405   1.405   1.405   1.405   1.405   1.405   1.405   1.405   1.405   1.405   1.405   1.405   1.405   1.405   1.405   1.405   1.405   1.405   1.405   1.405   1.405   1.405   1.405   1.405   1.405   1.405   1.405   1.405   1.405   1.405   1.405   1.405   1.405   1.405   1.405   1.405   1.405   1.405   1.405
    85.00    1.405   1.405   1.405   1.405   1.405   1.405   1.405   1.405   1.405   1.405   1.405   1.405   1.405   1.405   1.405   1.405   1.405   1.405   1.405   1.405   1.405   1.405   1.405   1.405   1.405   1.405   1.405   1.405   1.405   1.405   1.405   1.405   1.405   1.405   1.405   1.405   1.405   1.405   1.405   1.405   1.405   1.405   1.405   1.405   1.405   1.405   1.405   1.405   1.405   1.405   1.405   1.405   1.405
    80.00    1.405   1.405   1.405   1.405   1.405   1.405   1.405   1.405   1.405   1.405   1.405   1.405   1.405   1.405   1.405   1.405   1.405   1.405   1.405   1.405   1.405   1.405   1.405   1.405   1.405   1.405   1.405   1.405   1.405   1.405   1.405   1.405   1.405   1.405   1.405   1.405   1.405   1.405   1.405   1.405   1.405   1.405   1.405   1.405   1.405   1.405   1.405   1.405   1.405   1.405   1.405   1.405   1.405
    75.00    1.405   1.405   1.405   1.405   1.405   1.405   1.405   1.405   1.405   1.405   1.405   1.405   1.405   1.405   1.405   1.405   1.405   1.405   1.405   1.405   1.405   1.405   1.405   1.405   1.405   1.405   1.405   1.405   1.405   1.405   1.405   1.405   1.405   1.405   1.405   1.405   1.405   1.405   1.405   1.405   1.405   1.405   1.405   1.405   1.405   1.405   1.405   1.405   1.405   1.405   1.405   1.405   1.405
    70.00    1.405   1.405   1.405   1.405   1.405   1.405   1.405   1.405   1.405   1.405   1.405   1.405   1.405   1.405   1.405   1.405   1.405   1.405   1.405   1.405   1.405   1.405   1.405   1.405   1.405   1.405   1.405   1.405   1.405   1.405   1.405   1.405   1.405   1.405   1.405   1.405   1.405   1.405   1.405   1.405   1.405   1.405   1.405   1.405   1.405   1.405   1.405   1.405   1.405   1.405   1.405   1.405   1.405
    65.00    1.405   1.405   1.405   1.405   1.405   1.405   1.405   1.405   1.405   1.405   1.405   1.405   1.405   1.405   1.405   1.405   1.405   1.405   1.405   1.405   1.405   1.405   1.405   1.405   1.405   1.405   1.405   1.405   1.405   1.405   1.405   1.405   1.405   1.405   1.405   1.405   1.405   1.405   1.405   1.405   1.405   1.405   1.405   1.405   1.405   1.405   1.405   1.405   1.405   1.405   1.405   1.405   1.405
    60.00    1.405   1.405   1.405   1.405   1.405   1.405   1.405   1.405   1.405   1.405   1.405   1.405   1.405   1.405   1.405   1.405   1.405   1.405   1.405   1.405   1.405   1.405   1.405   1.405   1.405   1.405   1.405   1.405   1.405   1.405   1.405   1.405   1.405   1.405   1.405   1.405   1.405   1.405   1.405   1.405   1.405   1.405   1.405   1.405   1.405   1.405   1.405   1.405   1.405   1.405   1.405   1.405   1.405
    55.00    1.405   1.405   1.405   1.405   1.405   1.405   1.405   1.405   1.405   1.405   1.405   1.405   1.405   1.405   1.405   1.405   1.405   1.405   1.405   1.405   1.405   1.405   1.405   1.405   1.405   1.405   1.405   1.405   1.405   1.405   1.405   1.405   1.405   1.405   1.405   1.405   1.405   1.405   1.405   1.405   1.405   1.405   1.405   1.405   1.405   1.405   1.405   1.405   1.405   1.405   1.405   1.405   1.405
    50.00    1.405   1.405   1.405   1.405   1.405   1.405   1.405   1.405   1.405   1.405   1.405   1.405   1.405   1.405   1.405   1.405   1.405   1.405   1.405   1.405   1.405   1.405   1.405   1.405   1.405   1.405   1.405   1.405   1.405   1.405   1.405   1.405   1.405   1.405   1.405   1.405   1.405   1.405   1.405   1.405   1.405   1.405   1.405   1.405   1.405   1.405   1.405   1.405   1.405   1.405   1.405   1.405   1.405
    45.00    1.405   1.405   1.405   1.405   1.405   1.405   1.405   1.405   1.405   1.405   1.405   1.405   1.405   1.405   1.405   1.405   1.405   1.405   1.405   1.405   1.405   1.405   1.405   1.405   1.405   1.405   1.405   1.405   1.405   1.405   1.405   1.405   1.405   1.405   1.405   1.405   1.405   1.405   1.405   1.405   1.405   1.405   1.405   1.405   1.405   1.405   1.405   1.405   1.405   1.405   1.405   1.405   1.405
    40.00    1.405   1.405   1.405   1.405   1.405   1.405   1.405   1.405   1.405   1.405   1.405   1.405   1.405   1.405   1.405   1.405   1.405   1.405   1.405   1.405   1.405   1.405   1.405   1.405   1.405   1.405   1.405   1.405   1.405   1.405   1.405   1.405   1.405   1.405   1.405   1.405   1.405   1.405   1.405   1.405   1.405   1.405   1.405   1.405   1.405   1.405   1.405   1.405   1.405   1.405   1.405   1.405   1.405
    35.00    1.405   1.405   1.405   1.405   1.405   1.405   1.405   1.405   1.405   1.405   1.405   1.405   1.405   1.405   1.405   1.405   1.405   1.405   1.405   1.405   1.405   1.405   1.405   1.405   1.405   1.405   1.405   1.405   1.405   1.405   1.405   1.405   1.405   1.405   1.405   1.405   1.405   1.405   1.405   1.405   1.405   1.405   1.405   1.405   1.405   1.405   1.405   1.405   1.405   1.405   1.405   1.405   1.405
    30.00    1.405   1.405   1.405   1.405   1.405   1.405   1.405   1.405   1.405   1.405   1.405   1.405   1.405   1.405   1.405   1.405   1.405   1.405   1.405   1.405   1.405   1.405   1.405   1.405   1.405   1.405   1.405   1.405   1.405   1.405   1.405   1.405   1.405   1.405   1.405   1.405   1.405   1.405   1.405   1.405   1.405   1.405   1.405   1.405   1.405   1.405   1.405   1.405   1.405   1.405   1.405   1.405   1.405
    25.00    1.405   1.405   1.405   1.405   1.405   1.405   1.405   1.405   1.405   1.405   1.405   1.405   1.405   1.405   1.405   1.405   1.405   1.405   1.405   1.405   1.405   1.405   1.405   1.405   1.405   1.405   1.405   1.405   1.405   1.405   1.405   1.405   1.405   1.405   1.405   1.405   1.405   1.405   1.405   1.405   1.405   1.405   1.405   1.405   1.405   1.405   1.405   1.405   1.405   1.405   1.405   1.405   1.405
    20.00    1.405   1.405   1.405   1.405   1.405   1.405   1.405   1.405   1.405   1.405   1.405   1.405   1.405   1.405   1.405   1.405   1.405   1.405   1.405   1.405   1.405   1.405   1.405   1.405   1.405   1.405   1.405   1.405   1.405   1.405   1.405   1.405   1.405   1.405   1.405   1.405   1.405   1.405   1.405   1.405   1.405   1.405   1.405   1.405   1.405   1.405   1.405   1.405   1.405   1.405   1.405   1.405   1.405
    15.00    1.405   1.405   1.405   1.405   1.405   1.405   1.405   1.405   1.405   1.405   1.405   1.405   1.405   1.405   1.405   1.405   1.405   1.405   1.405   1.405   1.405   1.405   1.405   1.405   1.405   1.405   1.405   1.405   1.405   1.405   1.405   1.405   1.405   1.405   1.405   1.405   1.405   1.405   1.405   1.405   1.405   1.405   1.405   1.405   1.405   1.405   1.405   1.405   1.405   1.405   1.405   1.405   1.405
    10.00    1.405   1.405   1.405   1.405   1.405   1.405   1.405   1.405   1.405   1.405   1.405   1.405   1.405   1.405   1.405   1.405   1.405   1.405   1.405   1.405   1.405   1.405   1.405   1.405   1.405   1.405   1.405   1.405   1.405   1.405   1.405   1.405   1.405   1.405   1.405   1.405   1.405   1.405   1.405   1.405   1.405   1.405   1.405   1.405   1.405   1.405   1.405   1.405   1.405   1.405   1.405   1.405   1.405

   Mean standard deviation across all grid points:
      u component:    2.570 m/s
      v component:    2.237 m/s
      w component:    1.405 m/s


U-component (X) statistics from the hub grid point:

   Mean =   9.0000 m/s
   TI   =  22.6188 %

Nyquist frequency of turbulent wind field =        10.000 Hz


Processing complete.  2028 CPU seconds used.
