
This summary file was generated by TurbSim (v1.50, 25-Sep-2009) on 08-Nov-2024 at 13:01:38.


Runtime Options:

   6777740  Random seed #1
    RANLUX  Type of random number generator
         F  Output binary HH turbulence parameters?
         F  Output formatted turbulence parameters?
         F  Output AeroDyn HH files?
         T  Output AeroDyn FF files?
         T  Output BLADED FF files?
         F  Output tower data?
         F  Output formatted FF files?
         F  Output coherent turbulence time step file?
         T  Clockwise rotation when looking downwind?
 0 -  NONE  IEC turbulence models scaled to exact specified standard deviation


Turbine/Model Specifications:

        53  Vertical grid-point matrix dimension
        53  Horizontal grid-point matrix dimension
     0.050  Time step [seconds]
   650.000  Analysis time [seconds]
   610.000  Usable output time [seconds]
   140.000  Hub height [m]
   260.000  Grid height [m]
   260.000  Grid width [m]
     0.000  Vertical flow angle [degrees]
     0.000  Horizontal flow angle [degrees]


Meteorological Boundary Conditions:

    IECKAI  IEC Kaimal spectral model
         1  IEC standard: IEC 61400-1 Ed. 3: 2005
         B  IEC turbulence characteristic
      3ETM  IEC Extreme Turbulence Model
     2.000  IEC Extreme Turbulence Model (ETM) "c" parameter [m/s]
       IEC  Wind profile type
   140.000  Reference height [m]
    25.000  Reference wind speed [m/s]
       N/A  Jet height [m]
     0.200  Power law exponent
     0.030  Surface roughness length [m]


You have requested that the following file(s) be generated:

   .\TurbSim.bts (AeroDyn/TurbSim full-field wind file)
   .\TurbSim.wnd (AeroDyn/BLADED full-field wnd file)


Turbulence Simulation Scaling Parameter Summary:

   Turbulence model used                            =  IEC Kaimal
   Turbulence characteristic                        =  3B
   IEC turbulence type                              =  Extreme Turbulence Model
   Reference wind speed average over 10 minutes     =   37.500 m/s
   Annual wind speed average at hub height          =    7.500 m/s
   IEC standard                                     =  IEC 61400-1 Ed. 3: 2005
   Mean wind speed at hub height                    =   25.000 m/s
   Expected value of turbulence intensity at 15 m/s =   14.000%
   Characteristic value of standard deviation       =    3.957 m/s
   Turbulence scale                                 =   42.000 m
   u-component integral scale                       =  340.200 m
   Coherency scale                                  =  340.200 m
   Characteristic value of hub turbulence intensity =   15.827%
   Gradient Richardson number                       =    0.000

   Wind profile type                                =  Power law on rotor disk, logarithmic elsewhere
   Power law exponent                               =    0.200
   Mean shear across rotor disk                     =    0.053 (m/s)/m
   Assumed rotor diameter                           =  260.000 m
   Surface roughness length                         =    0.030 m

   Number of time steps in the FFT                  =    13000
   Number of time steps output                      =    12408


Mean Flow Angles:

   Vertical   =   0.0 degrees
   Horizontal =   0.0 degrees

Mean Wind Speed Profile:

   Height    Wind Speed   Horizontal Angle  U-comp (X)   V-comp (Y)   W-comp (Z)
     (m)        (m/s)         (degrees)       (m/s)        (m/s)        (m/s)   
   ------    ----------   ----------------  ----------   ----------   ----------
    270.0       28.51            0.00         28.51         0.00         0.00
    265.0       28.40            0.00         28.40         0.00         0.00
    260.0       28.29            0.00         28.29         0.00         0.00
    255.0       28.19            0.00         28.19         0.00         0.00
    250.0       28.07            0.00         28.07         0.00         0.00
    245.0       27.96            0.00         27.96         0.00         0.00
    240.0       27.85            0.00         27.85         0.00         0.00
    235.0       27.73            0.00         27.73         0.00         0.00
    230.0       27.61            0.00         27.61         0.00         0.00
    225.0       27.49            0.00         27.49         0.00         0.00
    220.0       27.37            0.00         27.37         0.00         0.00
    215.0       27.24            0.00         27.24         0.00         0.00
    210.0       27.11            0.00         27.11         0.00         0.00
    205.0       26.98            0.00         26.98         0.00         0.00
    200.0       26.85            0.00         26.85         0.00         0.00
    195.0       26.71            0.00         26.71         0.00         0.00
    190.0       26.57            0.00         26.57         0.00         0.00
    185.0       26.43            0.00         26.43         0.00         0.00
    180.0       26.29            0.00         26.29         0.00         0.00
    175.0       26.14            0.00         26.14         0.00         0.00
    170.0       25.99            0.00         25.99         0.00         0.00
    165.0       25.84            0.00         25.84         0.00         0.00
    160.0       25.68            0.00         25.68         0.00         0.00
    155.0       25.51            0.00         25.51         0.00         0.00
    150.0       25.35            0.00         25.35         0.00         0.00
    145.0       25.18            0.00         25.18         0.00         0.00
    140.0       25.00            0.00         25.00         0.00         0.00
    135.0       24.82            0.00         24.82         0.00         0.00
    130.0       24.63            0.00         24.63         0.00         0.00
    125.0       24.44            0.00         24.44         0.00         0.00
    120.0       24.24            0.00         24.24         0.00         0.00
    115.0       24.04            0.00         24.04         0.00         0.00
    110.0       23.82            0.00         23.82         0.00         0.00
    105.0       23.60            0.00         23.60         0.00         0.00
    100.0       23.37            0.00         23.37         0.00         0.00
     95.0       23.13            0.00         23.13         0.00         0.00
     90.0       22.89            0.00         22.89         0.00         0.00
     85.0       22.63            0.00         22.63         0.00         0.00
     80.0       22.35            0.00         22.35         0.00         0.00
     75.0       22.07            0.00         22.07         0.00         0.00
     70.0       21.76            0.00         21.76         0.00         0.00
     65.0       21.44            0.00         21.44         0.00         0.00
     60.0       21.10            0.00         21.10         0.00         0.00
     55.0       20.74            0.00         20.74         0.00         0.00
     50.0       20.35            0.00         20.35         0.00         0.00
     45.0       19.92            0.00         19.92         0.00         0.00
     40.0       19.46            0.00         19.46         0.00         0.00
     35.0       18.95            0.00         18.95         0.00         0.00
     30.0       18.37            0.00         18.37         0.00         0.00
     25.0       17.71            0.00         17.71         0.00         0.00
     20.0       16.94            0.00         16.94         0.00         0.00
     15.0       15.99            0.00         15.99         0.00         0.00
     10.0       14.75            0.00         14.75         0.00         0.00


Harvested Random Seeds after Generation of the Random Numbers:

    508955588 K1
            0 K2


Hub-Height Simulated Turbulence Statistical Summary:

   Type of Wind        Min (m/s)   Mean (m/s)    Max (m/s)  Sigma (m/s)       TI (%)
   ----------------    ---------   ----------    ---------  -----------       ------
   Longitudinal (u)        14.99        25.00        35.89        3.210       12.841
   Lateral (v)             -9.88         0.00        10.12        3.105       12.421
   Vertical (w)            -7.34         0.00         8.60        1.914        7.657
   U component             14.99        25.00        35.89        3.210       12.841
   V component             -9.88         0.00        10.12        3.105       12.421
   W component             -7.34         0.00         8.60        1.914        7.657
   Horizontal (U&V)        15.03        25.19        36.01        3.209       12.738
   Total                   15.05        25.27        36.12        3.207       12.695

                       Min Reynolds     Mean Reynolds    Max Reynolds    Correlation
   Product             Stress (m/s)^2   Stress (m/s)^2   Stress (m/s)^2  Coefficient
   ----------------    --------------   --------------   --------------  -----------
   u'w'                    -40.544            -0.096            42.376        -0.016
   u'v'                    -69.043            -1.145            96.763        -0.115
   v'w'                    -34.612             0.126            36.803         0.021


   Friction Velocity (Ustar)  =      0.310 m/s
   Maximum Instantaneous TKE  =    100.995 (m/s)^2
   Maximum Instantaneous CTKE =     52.302 (m/s)^2


Grid Point Variance Summary:

   Y-coord -130.00 -125.00 -120.00 -115.00 -110.00 -105.00 -100.00  -95.00  -90.00  -85.00  -80.00  -75.00  -70.00  -65.00  -60.00  -55.00  -50.00  -45.00  -40.00  -35.00  -30.00  -25.00  -20.00  -15.00  -10.00   -5.00    0.00    5.00   10.00   15.00   20.00   25.00   30.00   35.00   40.00   45.00   50.00   55.00   60.00   65.00   70.00   75.00   80.00   85.00   90.00   95.00  100.00  105.00  110.00  115.00  120.00  125.00  130.00

   Height   Standard deviation at grid points for the u component:
   270.00    4.353   4.185   4.132   4.266   4.278   4.132   4.195   4.143   4.329   4.314   4.356   4.289   4.216   4.057   3.994   3.879   4.088   3.908   3.847   3.904   3.755   3.783   3.632   3.551   3.648   3.574   3.568   3.539   3.504   3.475   3.488   3.607   3.491   3.475   3.462   3.390   3.288   3.346   3.370   3.394   3.404   3.380   3.376   3.337   3.472   3.491   3.554   3.500   3.405   3.451   3.333   3.432   3.583
   265.00    4.272   4.117   4.133   4.182   4.004   4.139   4.056   4.244   4.344   4.388   4.310   4.481   4.344   4.136   3.768   3.911   4.006   3.999   3.941   3.997   3.841   3.773   3.584   3.499   3.557   3.615   3.676   3.574   3.512   3.480   3.488   3.548   3.584   3.442   3.431   3.445   3.256   3.282   3.355   3.511   3.520   3.374   3.389   3.411   3.450   3.474   3.319   3.425   3.367   3.411   3.367   3.483   3.394
   260.00    4.295   4.139   3.981   3.998   3.932   4.051   4.165   4.360   4.351   4.414   4.388   4.430   4.293   4.135   3.950   3.964   3.880   3.824   3.831   3.809   3.769   3.691   3.511   3.322   3.526   3.561   3.696   3.495   3.384   3.410   3.485   3.492   3.346   3.412   3.422   3.335   3.360   3.467   3.493   3.499   3.398   3.399   3.289   3.430   3.457   3.394   3.378   3.384   3.373   3.450   3.550   3.481   3.539
   255.00    4.124   4.111   3.978   4.025   4.199   4.252   4.325   4.286   4.411   4.457   4.432   4.390   4.151   3.987   4.064   3.967   3.829   3.746   3.744   3.693   3.616   3.597   3.540   3.381   3.490   3.470   3.549   3.498   3.467   3.446   3.434   3.409   3.406   3.424   3.435   3.297   3.313   3.388   3.426   3.499   3.483   3.571   3.388   3.402   3.483   3.468   3.407   3.440   3.483   3.390   3.495   3.402   3.467
   250.00    4.257   4.271   4.144   4.164   4.342   4.418   4.365   4.375   4.392   4.286   4.185   4.278   4.173   4.220   4.229   4.087   3.886   3.790   3.731   3.739   3.620   3.485   3.560   3.591   3.463   3.387   3.416   3.544   3.600   3.521   3.443   3.423   3.417   3.455   3.456   3.413   3.460   3.348   3.392   3.484   3.580   3.522   3.531   3.592   3.609   3.543   3.408   3.509   3.486   3.369   3.459   3.376   3.405
   245.00    4.213   4.235   4.283   4.466   4.371   4.444   4.414   4.270   4.330   4.314   4.171   4.209   4.168   4.186   4.158   3.955   3.853   3.884   3.753   3.559   3.536   3.481   3.549   3.463   3.332   3.408   3.550   3.691   3.492   3.513   3.482   3.553   3.464   3.318   3.361   3.424   3.375   3.366   3.514   3.504   3.552   3.602   3.469   3.579   3.628   3.573   3.550   3.548   3.443   3.461   3.582   3.370   3.365
   240.00    4.124   3.960   4.050   4.278   4.425   4.402   4.159   4.311   4.380   4.109   4.227   4.159   4.084   4.141   4.030   3.962   3.936   3.805   3.659   3.675   3.505   3.268   3.344   3.416   3.355   3.397   3.495   3.598   3.600   3.570   3.525   3.570   3.518   3.444   3.421   3.415   3.353   3.455   3.528   3.629   3.574   3.572   3.498   3.498   3.518   3.562   3.500   3.452   3.445   3.555   3.551   3.493   3.466
   235.00    3.846   3.815   3.841   4.006   4.213   4.397   4.148   4.314   4.210   4.133   4.053   4.110   4.208   4.052   4.190   3.993   3.956   3.847   3.696   3.549   3.381   3.205   3.219   3.289   3.503   3.583   3.502   3.587   3.456   3.449   3.429   3.411   3.417   3.496   3.375   3.463   3.450   3.620   3.558   3.649   3.599   3.524   3.577   3.535   3.569   3.514   3.461   3.424   3.451   3.514   3.431   3.321   3.450
   230.00    3.847   3.878   3.999   3.953   4.172   4.250   4.278   4.295   4.170   4.091   4.095   4.311   4.262   4.205   4.112   4.022   4.014   3.723   3.767   3.639   3.435   3.341   3.247   3.313   3.364   3.326   3.382   3.494   3.437   3.551   3.443   3.484   3.499   3.562   3.469   3.464   3.592   3.613   3.653   3.550   3.564   3.531   3.504   3.532   3.542   3.442   3.549   3.486   3.473   3.539   3.377   3.392   3.371
   225.00    3.754   3.852   3.898   4.009   4.049   4.122   4.290   4.405   4.235   4.227   4.071   4.230   4.128   4.158   4.003   4.160   3.995   3.969   3.843   3.695   3.508   3.405   3.355   3.290   3.410   3.403   3.306   3.411   3.513   3.519   3.477   3.368   3.539   3.440   3.337   3.467   3.524   3.530   3.581   3.620   3.539   3.489   3.530   3.526   3.447   3.488   3.640   3.677   3.568   3.604   3.492   3.451   3.562
   220.00    3.817   3.859   4.040   4.100   4.142   4.320   4.344   4.386   4.276   4.150   4.077   4.057   4.066   4.097   4.082   4.183   4.043   3.923   3.771   3.759   3.430   3.257   3.226   3.217   3.266   3.254   3.365   3.424   3.429   3.538   3.429   3.636   3.578   3.339   3.274   3.376   3.574   3.542   3.543   3.589   3.575   3.619   3.698   3.553   3.702   3.587   3.706   3.727   3.674   3.660   3.684   3.678   3.611
   215.00    3.613   3.740   3.855   4.024   4.143   4.044   4.114   4.224   4.267   4.104   4.053   3.891   3.840   4.005   4.073   4.100   3.960   3.787   3.755   3.669   3.419   3.194   3.310   3.318   3.250   3.277   3.382   3.506   3.539   3.503   3.624   3.686   3.570   3.383   3.454   3.501   3.560   3.516   3.590   3.519   3.626   3.635   3.707   3.790   3.777   3.715   3.676   3.619   3.552   3.663   3.667   3.667   3.680
   210.00    3.707   3.723   3.826   4.052   3.989   4.011   4.146   4.186   4.245   4.172   4.211   3.937   3.838   3.892   4.027   4.053   3.820   3.880   3.584   3.521   3.402   3.251   3.406   3.371   3.257   3.378   3.549   3.576   3.454   3.589   3.681   3.664   3.618   3.670   3.597   3.646   3.496   3.526   3.562   3.465   3.680   3.702   3.710   3.638   3.851   3.709   3.674   3.463   3.428   3.574   3.670   3.667   3.651
   205.00    3.669   3.838   3.623   3.754   3.947   3.868   3.946   4.157   4.043   4.048   3.986   3.914   3.870   3.828   3.957   3.942   3.817   3.688   3.675   3.550   3.399   3.419   3.444   3.288   3.388   3.510   3.660   3.705   3.631   3.717   3.517   3.629   3.602   3.640   3.662   3.600   3.585   3.653   3.671   3.650   3.686   3.667   3.691   3.694   3.642   3.704   3.576   3.546   3.499   3.517   3.585   3.687   3.588
   200.00    3.761   3.912   3.773   3.813   3.808   3.804   3.996   4.026   3.934   3.760   3.873   3.900   3.840   3.762   3.820   3.828   3.642   3.552   3.606   3.464   3.483   3.384   3.331   3.328   3.340   3.467   3.600   3.713   3.595   3.596   3.711   3.567   3.669   3.570   3.725   3.704   3.560   3.675   3.642   3.869   3.798   3.811   3.676   3.666   3.655   3.619   3.595   3.539   3.578   3.575   3.637   3.596   3.488
   195.00    3.961   4.054   3.752   3.851   3.822   3.846   3.862   3.876   3.887   3.757   3.715   3.774   3.859   3.818   3.783   3.664   3.608   3.543   3.515   3.548   3.619   3.450   3.407   3.320   3.420   3.196   3.431   3.601   3.695   3.650   3.646   3.651   3.661   3.628   3.558   3.741   3.637   3.681   3.693   3.919   3.925   3.866   3.871   3.738   3.761   3.748   3.768   3.691   3.757   3.712   3.518   3.557   3.414
   190.00    3.796   4.018   3.778   3.715   3.757   3.644   3.647   3.662   3.837   3.813   3.736   3.692   3.822   3.868   3.765   3.700   3.573   3.585   3.529   3.572   3.586   3.485   3.474   3.350   3.479   3.283   3.505   3.560   3.609   3.640   3.522   3.639   3.503   3.564   3.673   3.648   3.578   3.500   3.677   3.764   3.765   3.966   4.029   3.825   3.946   3.832   3.770   3.678   3.795   3.669   3.391   3.453   3.408
   185.00    3.829   3.807   3.661   3.586   3.642   3.705   3.753   3.685   3.812   3.798   3.660   3.801   3.978   3.802   3.625   3.567   3.509   3.510   3.368   3.485   3.501   3.517   3.496   3.379   3.355   3.425   3.572   3.555   3.759   3.691   3.718   3.617   3.661   3.593   3.711   3.614   3.480   3.574   3.665   3.871   3.890   3.994   4.033   3.982   3.905   3.744   3.665   3.769   3.742   3.627   3.564   3.379   3.311
   180.00    3.848   3.703   3.694   3.888   3.792   3.791   3.711   3.712   3.828   3.976   3.867   3.894   4.013   3.910   3.814   3.758   3.614   3.581   3.483   3.351   3.423   3.583   3.548   3.450   3.427   3.512   3.497   3.496   3.625   3.680   3.704   3.584   3.424   3.524   3.588   3.607   3.559   3.525   3.768   3.883   4.087   4.141   3.939   3.881   3.920   3.625   3.715   3.922   3.727   3.573   3.543   3.548   3.468
   175.00    3.725   3.780   3.846   3.933   3.935   3.823   3.848   3.750   3.730   3.979   3.963   3.810   3.864   3.813   3.854   3.736   3.747   3.703   3.538   3.585   3.460   3.532   3.568   3.438   3.394   3.520   3.545   3.401   3.551   3.679   3.570   3.573   3.488   3.494   3.503   3.573   3.659   3.628   3.740   3.860   3.980   4.026   3.865   3.912   3.925   3.730   3.657   3.685   3.577   3.543   3.567   3.500   3.474
   170.00    3.773   3.807   3.933   3.996   4.108   3.967   3.941   3.791   3.974   3.998   3.917   3.758   3.942   3.908   3.871   3.690   3.634   3.792   3.549   3.565   3.430   3.526   3.507   3.390   3.416   3.390   3.395   3.449   3.569   3.515   3.561   3.451   3.546   3.552   3.587   3.554   3.593   3.678   3.669   3.662   3.819   3.848   3.939   3.893   3.720   3.666   3.509   3.551   3.533   3.549   3.494   3.485   3.430
   165.00    3.716   3.697   3.941   3.912   4.155   4.040   3.981   3.798   3.946   3.855   3.834   3.941   4.021   3.821   3.869   3.712   3.650   3.661   3.816   3.626   3.503   3.411   3.556   3.475   3.484   3.398   3.447   3.476   3.359   3.465   3.468   3.445   3.410   3.527   3.653   3.642   3.560   3.658   3.631   3.678   3.776   3.870   3.874   4.031   3.807   3.693   3.640   3.546   3.619   3.595   3.634   3.449   3.450
   160.00    3.935   3.787   3.877   3.981   4.070   3.980   3.998   3.859   3.868   3.856   3.848   3.976   3.911   3.849   3.947   3.800   3.793   3.789   3.725   3.656   3.643   3.624   3.405   3.450   3.476   3.467   3.448   3.394   3.362   3.524   3.519   3.384   3.447   3.529   3.664   3.704   3.639   3.571   3.601   3.727   3.820   3.809   3.922   3.913   3.721   3.668   3.669   3.552   3.589   3.679   3.556   3.618   3.681
   155.00    3.896   3.844   3.838   3.926   3.763   3.901   3.978   3.949   3.755   3.936   3.924   3.992   3.983   3.985   4.098   3.982   4.065   4.047   3.928   3.792   3.831   3.650   3.409   3.428   3.371   3.341   3.333   3.314   3.306   3.471   3.508   3.413   3.391   3.698   3.543   3.558   3.610   3.698   3.670   3.743   3.716   3.777   3.686   3.784   3.831   3.630   3.535   3.547   3.581   3.657   3.584   3.679   3.569
   150.00    3.835   3.795   3.591   3.636   3.820   3.742   4.028   3.848   3.736   3.959   3.941   4.149   3.912   4.017   4.023   3.960   3.978   3.913   3.902   3.802   3.764   3.604   3.453   3.272   3.269   3.323   3.290   3.334   3.472   3.594   3.583   3.496   3.453   3.611   3.416   3.400   3.627   3.724   3.723   3.824   3.658   3.690   3.762   3.622   3.716   3.696   3.644   3.582   3.704   3.777   3.515   3.720   3.702
   145.00    3.927   3.776   3.689   3.497   3.605   3.854   3.888   3.910   3.909   3.983   4.006   4.051   4.113   3.846   3.829   3.765   3.959   3.874   3.864   3.720   3.587   3.601   3.486   3.423   3.325   3.260   3.197   3.297   3.371   3.406   3.571   3.573   3.538   3.640   3.431   3.370   3.567   3.791   3.912   3.874   3.842   3.767   3.628   3.688   3.721   3.646   3.607   3.677   3.737   3.784   3.800   3.585   3.676
   140.00    3.701   3.830   3.851   3.777   3.858   3.860   3.829   3.784   3.786   3.887   4.049   3.998   3.906   3.795   3.750   3.713   3.824   3.807   3.780   3.738   3.695   3.603   3.519   3.427   3.244   3.066   3.210   3.187   3.243   3.385   3.398   3.366   3.477   3.440   3.443   3.362   3.573   3.713   3.807   3.896   3.801   3.725   3.745   3.565   3.725   3.648   3.775   3.676   3.707   3.804   3.654   3.649   3.604
   135.00    3.580   3.761   3.882   3.901   3.739   3.742   3.705   3.832   3.658   3.794   3.954   3.972   3.821   3.656   3.425   3.576   3.735   3.668   3.708   3.774   3.915   3.769   3.659   3.361   3.191   3.191   3.297   3.256   3.226   3.207   3.287   3.519   3.446   3.473   3.347   3.342   3.445   3.534   3.781   3.844   3.862   3.759   3.818   3.597   3.677   3.828   3.959   3.829   3.859   3.685   3.757   3.761   3.729
   130.00    3.576   3.739   3.748   3.737   3.752   3.655   3.727   3.572   3.588   3.625   3.819   3.858   3.611   3.669   3.690   3.695   3.607   3.733   3.752   3.733   3.774   3.785   3.726   3.443   3.164   3.151   3.204   3.267   3.283   3.161   3.222   3.386   3.482   3.446   3.350   3.275   3.313   3.338   3.596   3.738   3.809   3.797   3.762   3.792   3.680   3.797   3.920   3.877   3.767   3.833   3.782   3.930   3.802
   125.00    3.656   3.659   3.650   3.691   3.610   3.476   3.499   3.493   3.401   3.501   3.563   3.543   3.597   3.726   3.633   3.567   3.627   3.668   3.689   3.708   3.890   3.836   3.805   3.606   3.350   3.274   3.247   3.285   3.410   3.381   3.294   3.362   3.529   3.310   3.446   3.414   3.311   3.373   3.586   3.732   3.738   3.651   3.590   3.583   3.622   3.696   3.893   3.926   3.954   4.039   4.011   4.034   3.863
   120.00    3.732   3.574   3.534   3.653   3.530   3.493   3.411   3.399   3.369   3.342   3.427   3.457   3.320   3.492   3.521   3.655   3.566   3.596   3.611   3.610   3.768   3.821   3.674   3.529   3.284   3.285   3.329   3.335   3.427   3.468   3.497   3.562   3.513   3.363   3.372   3.506   3.525   3.435   3.604   3.724   3.708   3.591   3.489   3.553   3.627   3.684   3.979   3.950   3.997   4.120   4.228   4.114   3.962
   115.00    3.658   3.708   3.530   3.621   3.507   3.618   3.489   3.346   3.252   3.372   3.362   3.330   3.328   3.538   3.445   3.502   3.730   3.636   3.575   3.576   3.593   3.727   3.629   3.473   3.334   3.170   3.213   3.495   3.573   3.574   3.599   3.663   3.474   3.475   3.546   3.475   3.530   3.664   3.730   3.821   3.706   3.591   3.504   3.525   3.639   3.926   4.135   3.999   4.103   4.235   4.194   3.977   3.823
   110.00    3.528   3.672   3.605   3.530   3.542   3.548   3.339   3.333   3.397   3.338   3.324   3.273   3.291   3.424   3.549   3.430   3.525   3.647   3.486   3.558   3.578   3.576   3.633   3.336   3.105   3.150   3.166   3.346   3.554   3.604   3.609   3.565   3.617   3.583   3.618   3.525   3.514   3.543   3.667   3.701   3.710   3.621   3.604   3.619   3.578   3.738   3.971   3.971   4.134   4.116   4.233   3.935   3.879
   105.00    3.606   3.789   3.692   3.530   3.614   3.639   3.403   3.456   3.411   3.448   3.341   3.198   3.350   3.435   3.446   3.292   3.364   3.467   3.431   3.591   3.551   3.567   3.546   3.303   3.121   3.060   3.034   3.261   3.414   3.655   3.601   3.671   3.592   3.582   3.728   3.739   3.694   3.662   3.736   3.678   3.606   3.736   3.772   3.774   3.689   3.789   3.937   3.988   4.010   4.101   4.051   4.018   3.919
   100.00    3.832   3.789   3.636   3.567   3.621   3.621   3.612   3.614   3.501   3.428   3.332   3.267   3.248   3.325   3.325   3.274   3.278   3.374   3.316   3.500   3.474   3.507   3.426   3.314   2.972   2.961   3.082   3.150   3.430   3.643   3.496   3.448   3.531   3.740   3.795   3.747   3.757   3.587   3.613   3.449   3.499   3.590   3.531   3.784   3.666   3.797   3.902   3.935   4.047   4.085   4.026   3.970   3.963
    95.00    4.025   3.917   3.865   3.775   3.680   3.633   3.485   3.586   3.577   3.502   3.463   3.505   3.267   3.270   3.300   3.155   3.373   3.306   3.416   3.491   3.550   3.369   3.453   3.262   3.102   3.067   3.170   3.294   3.340   3.520   3.408   3.400   3.645   3.843   3.922   3.816   3.752   3.661   3.610   3.569   3.408   3.539   3.602   3.628   3.560   3.705   3.842   3.854   4.061   4.128   4.099   4.166   4.106
    90.00    3.961   4.029   3.997   3.949   3.748   3.626   3.412   3.471   3.438   3.550   3.449   3.507   3.385   3.321   3.250   3.185   3.258   3.309   3.358   3.499   3.434   3.392   3.374   3.342   3.157   3.197   3.338   3.546   3.588   3.552   3.491   3.487   3.561   3.812   3.898   3.808   3.807   3.754   3.624   3.517   3.495   3.485   3.584   3.786   3.622   3.737   3.899   3.947   3.925   4.106   4.133   4.111   3.991
    85.00    3.836   3.992   4.161   4.067   3.909   3.695   3.632   3.456   3.586   3.569   3.579   3.421   3.469   3.459   3.266   3.235   3.264   3.311   3.405   3.285   3.381   3.543   3.628   3.502   3.440   3.456   3.400   3.445   3.460   3.699   3.569   3.550   3.662   3.750   3.716   3.783   3.879   3.601   3.544   3.523   3.494   3.604   3.719   3.824   3.803   3.674   3.969   3.955   3.942   4.088   4.169   3.949   3.897
    80.00    3.912   3.845   3.776   3.982   3.940   3.650   3.610   3.477   3.527   3.509   3.454   3.430   3.312   3.292   3.220   3.341   3.192   3.336   3.352   3.406   3.467   3.631   3.697   3.662   3.600   3.452   3.542   3.555   3.473   3.620   3.563   3.749   3.649   3.688   3.766   3.841   3.830   3.649   3.742   3.631   3.583   3.612   3.656   3.754   3.847   3.776   3.815   3.998   3.989   4.040   4.004   4.054   3.916
    75.00    3.757   3.727   3.767   3.870   3.730   3.776   3.606   3.576   3.499   3.425   3.476   3.339   3.275   3.267   3.255   3.317   3.363   3.186   3.295   3.432   3.452   3.620   3.693   3.663   3.756   3.691   3.661   3.591   3.509   3.595   3.653   3.644   3.681   3.783   3.674   3.690   3.953   3.751   3.902   3.679   3.610   3.688   3.649   3.895   3.944   3.918   3.846   3.969   3.981   3.921   3.834   3.945   3.888
    70.00    3.919   4.039   3.836   3.756   3.823   3.697   3.706   3.659   3.647   3.650   3.465   3.425   3.383   3.408   3.387   3.448   3.468   3.281   3.281   3.380   3.599   3.494   3.594   3.701   3.744   3.731   3.787   3.711   3.640   3.744   3.726   3.735   3.824   3.789   3.817   3.887   3.919   3.916   3.861   3.692   3.542   3.631   3.642   3.974   3.971   3.881   3.943   3.891   3.905   3.818   3.764   3.798   3.807
    65.00    3.877   3.966   3.997   3.703   3.728   3.723   3.733   3.668   3.659   3.462   3.409   3.378   3.471   3.457   3.518   3.533   3.356   3.269   3.260   3.431   3.605   3.576   3.554   3.544   3.764   3.815   3.832   3.751   3.795   3.658   3.902   3.797   3.763   3.770   3.837   3.847   3.820   3.659   3.688   3.619   3.500   3.567   3.695   3.865   3.902   3.901   3.861   3.902   4.004   3.831   3.723   3.818   3.873
    60.00    3.992   3.856   3.897   3.833   3.868   3.924   3.764   3.732   3.615   3.569   3.491   3.393   3.537   3.334   3.465   3.419   3.246   3.278   3.263   3.557   3.589   3.699   3.452   3.515   3.608   3.824   3.774   3.748   3.762   3.754   3.988   3.942   3.829   3.728   3.793   3.951   3.773   3.680   3.544   3.603   3.594   3.576   3.790   3.779   3.872   3.925   3.960   3.909   3.914   3.917   3.838   3.926   3.789
    55.00    3.835   3.886   3.741   3.824   3.751   3.796   3.700   3.570   3.503   3.482   3.424   3.318   3.502   3.356   3.467   3.410   3.282   3.287   3.298   3.505   3.629   3.623   3.539   3.512   3.532   3.680   3.777   3.734   3.690   3.812   3.981   3.935   3.999   3.832   3.836   3.955   3.747   3.712   3.777   3.703   3.615   3.609   3.766   3.949   3.805   3.844   3.952   3.795   3.939   3.971   4.039   3.918   3.656
    50.00    3.692   3.781   3.911   4.011   3.924   3.752   3.755   3.465   3.530   3.541   3.387   3.442   3.432   3.465   3.430   3.318   3.248   3.275   3.375   3.458   3.614   3.536   3.411   3.600   3.670   3.678   3.694   3.781   3.793   3.847   3.854   4.007   4.178   4.036   3.970   3.929   3.932   3.956   3.980   3.781   3.554   3.633   3.774   3.845   3.810   3.852   3.914   3.864   3.802   3.863   4.073   3.814   3.624
    45.00    3.790   3.771   3.806   3.823   3.802   3.706   3.614   3.484   3.465   3.497   3.507   3.425   3.408   3.442   3.310   3.328   3.245   3.330   3.417   3.520   3.509   3.569   3.608   3.559   3.586   3.704   3.826   3.714   3.825   3.900   3.853   3.990   4.005   4.052   4.012   3.865   3.978   3.863   3.946   3.863   3.791   3.881   3.847   3.780   3.919   3.862   3.838   3.843   3.878   3.800   4.000   3.717   3.649
    40.00    3.660   3.751   3.723   3.539   3.620   3.678   3.480   3.512   3.499   3.393   3.560   3.441   3.443   3.637   3.617   3.444   3.486   3.441   3.559   3.616   3.521   3.659   3.769   3.688   3.630   3.740   3.769   3.733   3.874   3.930   3.834   3.923   4.021   4.139   4.067   3.810   3.924   3.833   3.854   3.912   3.879   3.976   3.850   3.862   3.667   3.786   3.872   3.713   3.857   3.894   3.950   3.795   3.741
    35.00    3.835   3.809   3.740   3.543   3.695   3.770   3.731   3.588   3.462   3.441   3.547   3.622   3.663   3.674   3.589   3.566   3.648   3.563   3.585   3.567   3.589   3.677   3.700   3.750   3.806   3.699   3.608   3.669   3.942   3.848   3.886   3.924   4.219   4.094   3.923   3.860   3.982   3.981   3.910   3.684   3.853   3.897   3.977   3.907   3.833   3.893   3.885   3.778   3.671   3.743   3.728   3.709   3.870
    30.00    3.854   3.947   3.801   3.635   3.803   3.894   3.873   3.820   3.643   3.620   3.592   3.582   3.630   3.612   3.580   3.779   3.680   3.579   3.534   3.645   3.592   3.591   3.692   3.684   3.604   3.452   3.616   3.602   3.811   3.760   3.865   4.024   4.227   4.193   3.911   3.786   3.918   3.980   3.869   3.745   3.801   3.896   3.910   3.896   4.015   4.012   3.916   3.887   3.745   3.973   3.639   3.821   3.866
    25.00    3.814   3.962   3.932   3.802   3.717   3.641   3.782   3.721   3.528   3.537   3.591   3.601   3.714   3.903   3.806   3.875   3.854   3.557   3.552   3.435   3.505   3.592   3.664   3.600   3.406   3.514   3.680   3.599   3.657   3.692   3.759   4.020   4.023   4.100   3.884   3.857   3.850   3.841   3.918   3.786   3.973   3.998   3.785   3.919   3.914   3.949   3.946   3.798   3.907   3.925   3.891   3.951   4.066
    20.00    3.850   3.820   3.941   3.803   3.760   3.812   3.762   3.793   3.741   3.631   3.629   3.787   3.775   3.897   3.916   3.900   3.741   3.657   3.561   3.430   3.582   3.707   3.533   3.476   3.400   3.575   3.574   3.725   3.720   3.530   3.736   3.968   3.950   4.057   4.047   4.082   3.789   3.680   3.727   3.895   3.898   4.060   4.134   4.046   3.950   3.925   4.037   3.922   3.896   3.941   3.909   4.109   4.188
    15.00    3.810   3.787   3.872   3.905   3.905   3.846   3.769   3.868   3.825   3.826   3.731   3.814   3.862   3.983   3.940   3.799   3.720   3.664   3.534   3.405   3.646   3.539   3.654   3.629   3.544   3.509   3.714   3.742   3.731   3.686   3.764   3.851   3.872   3.950   3.941   3.942   3.786   3.874   3.913   3.890   3.951   4.036   4.017   4.246   4.191   4.179   4.161   4.023   4.030   3.896   4.046   4.106   4.107
    10.00    3.853   3.863   3.900   4.021   3.955   3.884   3.828   4.084   3.925   3.852   3.808   3.714   3.745   3.854   3.899   3.694   3.717   3.627   3.578   3.483   3.643   3.772   3.822   3.683   3.633   3.578   3.645   3.795   3.693   3.844   3.794   3.819   3.804   3.846   3.860   3.844   3.760   3.798   3.765   3.909   3.864   4.041   4.097   4.153   4.187   4.303   4.177   4.046   3.886   4.005   3.963   3.960   4.038

   Height   Standard deviation at grid points for the v component:
   270.00    3.105   3.105   3.105   3.105   3.105   3.105   3.105   3.105   3.105   3.105   3.105   3.105   3.105   3.105   3.105   3.105   3.105   3.105   3.105   3.105   3.105   3.105   3.105   3.105   3.105   3.105   3.105   3.105   3.105   3.105   3.105   3.105   3.105   3.105   3.105   3.105   3.105   3.105   3.105   3.105   3.105   3.105   3.105   3.105   3.105   3.105   3.105   3.105   3.105   3.105   3.105   3.105   3.105
   265.00    3.105   3.105   3.105   3.105   3.105   3.105   3.105   3.105   3.105   3.105   3.105   3.105   3.105   3.105   3.105   3.105   3.105   3.105   3.105   3.105   3.105   3.105   3.105   3.105   3.105   3.105   3.105   3.105   3.105   3.105   3.105   3.105   3.105   3.105   3.105   3.105   3.105   3.105   3.105   3.105   3.105   3.105   3.105   3.105   3.105   3.105   3.105   3.105   3.105   3.105   3.105   3.105   3.105
   260.00    3.105   3.105   3.105   3.105   3.105   3.105   3.105   3.105   3.105   3.105   3.105   3.105   3.105   3.105   3.105   3.105   3.105   3.105   3.105   3.105   3.105   3.105   3.105   3.105   3.105   3.105   3.105   3.105   3.105   3.105   3.105   3.105   3.105   3.105   3.105   3.105   3.105   3.105   3.105   3.105   3.105   3.105   3.105   3.105   3.105   3.105   3.105   3.105   3.105   3.105   3.105   3.105   3.105
   255.00    3.105   3.105   3.105   3.105   3.105   3.105   3.105   3.105   3.105   3.105   3.105   3.105   3.105   3.105   3.105   3.105   3.105   3.105   3.105   3.105   3.105   3.105   3.105   3.105   3.105   3.105   3.105   3.105   3.105   3.105   3.105   3.105   3.105   3.105   3.105   3.105   3.105   3.105   3.105   3.105   3.105   3.105   3.105   3.105   3.105   3.105   3.105   3.105   3.105   3.105   3.105   3.105   3.105
   250.00    3.105   3.105   3.105   3.105   3.105   3.105   3.105   3.105   3.105   3.105   3.105   3.105   3.105   3.105   3.105   3.105   3.105   3.105   3.105   3.105   3.105   3.105   3.105   3.105   3.105   3.105   3.105   3.105   3.105   3.105   3.105   3.105   3.105   3.105   3.105   3.105   3.105   3.105   3.105   3.105   3.105   3.105   3.105   3.105   3.105   3.105   3.105   3.105   3.105   3.105   3.105   3.105   3.105
   245.00    3.105   3.105   3.105   3.105   3.105   3.105   3.105   3.105   3.105   3.105   3.105   3.105   3.105   3.105   3.105   3.105   3.105   3.105   3.105   3.105   3.105   3.105   3.105   3.105   3.105   3.105   3.105   3.105   3.105   3.105   3.105   3.105   3.105   3.105   3.105   3.105   3.105   3.105   3.105   3.105   3.105   3.105   3.105   3.105   3.105   3.105   3.105   3.105   3.105   3.105   3.105   3.105   3.105
   240.00    3.105   3.105   3.105   3.105   3.105   3.105   3.105   3.105   3.105   3.105   3.105   3.105   3.105   3.105   3.105   3.105   3.105   3.105   3.105   3.105   3.105   3.105   3.105   3.105   3.105   3.105   3.105   3.105   3.105   3.105   3.105   3.105   3.105   3.105   3.105   3.105   3.105   3.105   3.105   3.105   3.105   3.105   3.105   3.105   3.105   3.105   3.105   3.105   3.105   3.105   3.105   3.105   3.105
   235.00    3.105   3.105   3.105   3.105   3.105   3.105   3.105   3.105   3.105   3.105   3.105   3.105   3.105   3.105   3.105   3.105   3.105   3.105   3.105   3.105   3.105   3.105   3.105   3.105   3.105   3.105   3.105   3.105   3.105   3.105   3.105   3.105   3.105   3.105   3.105   3.105   3.105   3.105   3.105   3.105   3.105   3.105   3.105   3.105   3.105   3.105   3.105   3.105   3.105   3.105   3.105   3.105   3.105
   230.00    3.105   3.105   3.105   3.105   3.105   3.105   3.105   3.105   3.105   3.105   3.105   3.105   3.105   3.105   3.105   3.105   3.105   3.105   3.105   3.105   3.105   3.105   3.105   3.105   3.105   3.105   3.105   3.105   3.105   3.105   3.105   3.105   3.105   3.105   3.105   3.105   3.105   3.105   3.105   3.105   3.105   3.105   3.105   3.105   3.105   3.105   3.105   3.105   3.105   3.105   3.105   3.105   3.105
   225.00    3.105   3.105   3.105   3.105   3.105   3.105   3.105   3.105   3.105   3.105   3.105   3.105   3.105   3.105   3.105   3.105   3.105   3.105   3.105   3.105   3.105   3.105   3.105   3.105   3.105   3.105   3.105   3.105   3.105   3.105   3.105   3.105   3.105   3.105   3.105   3.105   3.105   3.105   3.105   3.105   3.105   3.105   3.105   3.105   3.105   3.105   3.105   3.105   3.105   3.105   3.105   3.105   3.105
   220.00    3.105   3.105   3.105   3.105   3.105   3.105   3.105   3.105   3.105   3.105   3.105   3.105   3.105   3.105   3.105   3.105   3.105   3.105   3.105   3.105   3.105   3.105   3.105   3.105   3.105   3.105   3.105   3.105   3.105   3.105   3.105   3.105   3.105   3.105   3.105   3.105   3.105   3.105   3.105   3.105   3.105   3.105   3.105   3.105   3.105   3.105   3.105   3.105   3.105   3.105   3.105   3.105   3.105
   215.00    3.105   3.105   3.105   3.105   3.105   3.105   3.105   3.105   3.105   3.105   3.105   3.105   3.105   3.105   3.105   3.105   3.105   3.105   3.105   3.105   3.105   3.105   3.105   3.105   3.105   3.105   3.105   3.105   3.105   3.105   3.105   3.105   3.105   3.105   3.105   3.105   3.105   3.105   3.105   3.105   3.105   3.105   3.105   3.105   3.105   3.105   3.105   3.105   3.105   3.105   3.105   3.105   3.105
   210.00    3.105   3.105   3.105   3.105   3.105   3.105   3.105   3.105   3.105   3.105   3.105   3.105   3.105   3.105   3.105   3.105   3.105   3.105   3.105   3.105   3.105   3.105   3.105   3.105   3.105   3.105   3.105   3.105   3.105   3.105   3.105   3.105   3.105   3.105   3.105   3.105   3.105   3.105   3.105   3.105   3.105   3.105   3.105   3.105   3.105   3.105   3.105   3.105   3.105   3.105   3.105   3.105   3.105
   205.00    3.105   3.105   3.105   3.105   3.105   3.105   3.105   3.105   3.105   3.105   3.105   3.105   3.105   3.105   3.105   3.105   3.105   3.105   3.105   3.105   3.105   3.105   3.105   3.105   3.105   3.105   3.105   3.105   3.105   3.105   3.105   3.105   3.105   3.105   3.105   3.105   3.105   3.105   3.105   3.105   3.105   3.105   3.105   3.105   3.105   3.105   3.105   3.105   3.105   3.105   3.105   3.105   3.105
   200.00    3.105   3.105   3.105   3.105   3.105   3.105   3.105   3.105   3.105   3.105   3.105   3.105   3.105   3.105   3.105   3.105   3.105   3.105   3.105   3.105   3.105   3.105   3.105   3.105   3.105   3.105   3.105   3.105   3.105   3.105   3.105   3.105   3.105   3.105   3.105   3.105   3.105   3.105   3.105   3.105   3.105   3.105   3.105   3.105   3.105   3.105   3.105   3.105   3.105   3.105   3.105   3.105   3.105
   195.00    3.105   3.105   3.105   3.105   3.105   3.105   3.105   3.105   3.105   3.105   3.105   3.105   3.105   3.105   3.105   3.105   3.105   3.105   3.105   3.105   3.105   3.105   3.105   3.105   3.105   3.105   3.105   3.105   3.105   3.105   3.105   3.105   3.105   3.105   3.105   3.105   3.105   3.105   3.105   3.105   3.105   3.105   3.105   3.105   3.105   3.105   3.105   3.105   3.105   3.105   3.105   3.105   3.105
   190.00    3.105   3.105   3.105   3.105   3.105   3.105   3.105   3.105   3.105   3.105   3.105   3.105   3.105   3.105   3.105   3.105   3.105   3.105   3.105   3.105   3.105   3.105   3.105   3.105   3.105   3.105   3.105   3.105   3.105   3.105   3.105   3.105   3.105   3.105   3.105   3.105   3.105   3.105   3.105   3.105   3.105   3.105   3.105   3.105   3.105   3.105   3.105   3.105   3.105   3.105   3.105   3.105   3.105
   185.00    3.105   3.105   3.105   3.105   3.105   3.105   3.105   3.105   3.105   3.105   3.105   3.105   3.105   3.105   3.105   3.105   3.105   3.105   3.105   3.105   3.105   3.105   3.105   3.105   3.105   3.105   3.105   3.105   3.105   3.105   3.105   3.105   3.105   3.105   3.105   3.105   3.105   3.105   3.105   3.105   3.105   3.105   3.105   3.105   3.105   3.105   3.105   3.105   3.105   3.105   3.105   3.105   3.105
   180.00    3.105   3.105   3.105   3.105   3.105   3.105   3.105   3.105   3.105   3.105   3.105   3.105   3.105   3.105   3.105   3.105   3.105   3.105   3.105   3.105   3.105   3.105   3.105   3.105   3.105   3.105   3.105   3.105   3.105   3.105   3.105   3.105   3.105   3.105   3.105   3.105   3.105   3.105   3.105   3.105   3.105   3.105   3.105   3.105   3.105   3.105   3.105   3.105   3.105   3.105   3.105   3.105   3.105
   175.00    3.105   3.105   3.105   3.105   3.105   3.105   3.105   3.105   3.105   3.105   3.105   3.105   3.105   3.105   3.105   3.105   3.105   3.105   3.105   3.105   3.105   3.105   3.105   3.105   3.105   3.105   3.105   3.105   3.105   3.105   3.105   3.105   3.105   3.105   3.105   3.105   3.105   3.105   3.105   3.105   3.105   3.105   3.105   3.105   3.105   3.105   3.105   3.105   3.105   3.105   3.105   3.105   3.105
   170.00    3.105   3.105   3.105   3.105   3.105   3.105   3.105   3.105   3.105   3.105   3.105   3.105   3.105   3.105   3.105   3.105   3.105   3.105   3.105   3.105   3.105   3.105   3.105   3.105   3.105   3.105   3.105   3.105   3.105   3.105   3.105   3.105   3.105   3.105   3.105   3.105   3.105   3.105   3.105   3.105   3.105   3.105   3.105   3.105   3.105   3.105   3.105   3.105   3.105   3.105   3.105   3.105   3.105
   165.00    3.105   3.105   3.105   3.105   3.105   3.105   3.105   3.105   3.105   3.105   3.105   3.105   3.105   3.105   3.105   3.105   3.105   3.105   3.105   3.105   3.105   3.105   3.105   3.105   3.105   3.105   3.105   3.105   3.105   3.105   3.105   3.105   3.105   3.105   3.105   3.105   3.105   3.105   3.105   3.105   3.105   3.105   3.105   3.105   3.105   3.105   3.105   3.105   3.105   3.105   3.105   3.105   3.105
   160.00    3.105   3.105   3.105   3.105   3.105   3.105   3.105   3.105   3.105   3.105   3.105   3.105   3.105   3.105   3.105   3.105   3.105   3.105   3.105   3.105   3.105   3.105   3.105   3.105   3.105   3.105   3.105   3.105   3.105   3.105   3.105   3.105   3.105   3.105   3.105   3.105   3.105   3.105   3.105   3.105   3.105   3.105   3.105   3.105   3.105   3.105   3.105   3.105   3.105   3.105   3.105   3.105   3.105
   155.00    3.105   3.105   3.105   3.105   3.105   3.105   3.105   3.105   3.105   3.105   3.105   3.105   3.105   3.105   3.105   3.105   3.105   3.105   3.105   3.105   3.105   3.105   3.105   3.105   3.105   3.105   3.105   3.105   3.105   3.105   3.105   3.105   3.105   3.105   3.105   3.105   3.105   3.105   3.105   3.105   3.105   3.105   3.105   3.105   3.105   3.105   3.105   3.105   3.105   3.105   3.105   3.105   3.105
   150.00    3.105   3.105   3.105   3.105   3.105   3.105   3.105   3.105   3.105   3.105   3.105   3.105   3.105   3.105   3.105   3.105   3.105   3.105   3.105   3.105   3.105   3.105   3.105   3.105   3.105   3.105   3.105   3.105   3.105   3.105   3.105   3.105   3.105   3.105   3.105   3.105   3.105   3.105   3.105   3.105   3.105   3.105   3.105   3.105   3.105   3.105   3.105   3.105   3.105   3.105   3.105   3.105   3.105
   145.00    3.105   3.105   3.105   3.105   3.105   3.105   3.105   3.105   3.105   3.105   3.105   3.105   3.105   3.105   3.105   3.105   3.105   3.105   3.105   3.105   3.105   3.105   3.105   3.105   3.105   3.105   3.105   3.105   3.105   3.105   3.105   3.105   3.105   3.105   3.105   3.105   3.105   3.105   3.105   3.105   3.105   3.105   3.105   3.105   3.105   3.105   3.105   3.105   3.105   3.105   3.105   3.105   3.105
   140.00    3.105   3.105   3.105   3.105   3.105   3.105   3.105   3.105   3.105   3.105   3.105   3.105   3.105   3.105   3.105   3.105   3.105   3.105   3.105   3.105   3.105   3.105   3.105   3.105   3.105   3.105   3.105   3.105   3.105   3.105   3.105   3.105   3.105   3.105   3.105   3.105   3.105   3.105   3.105   3.105   3.105   3.105   3.105   3.105   3.105   3.105   3.105   3.105   3.105   3.105   3.105   3.105   3.105
   135.00    3.105   3.105   3.105   3.105   3.105   3.105   3.105   3.105   3.105   3.105   3.105   3.105   3.105   3.105   3.105   3.105   3.105   3.105   3.105   3.105   3.105   3.105   3.105   3.105   3.105   3.105   3.105   3.105   3.105   3.105   3.105   3.105   3.105   3.105   3.105   3.105   3.105   3.105   3.105   3.105   3.105   3.105   3.105   3.105   3.105   3.105   3.105   3.105   3.105   3.105   3.105   3.105   3.105
   130.00    3.105   3.105   3.105   3.105   3.105   3.105   3.105   3.105   3.105   3.105   3.105   3.105   3.105   3.105   3.105   3.105   3.105   3.105   3.105   3.105   3.105   3.105   3.105   3.105   3.105   3.105   3.105   3.105   3.105   3.105   3.105   3.105   3.105   3.105   3.105   3.105   3.105   3.105   3.105   3.105   3.105   3.105   3.105   3.105   3.105   3.105   3.105   3.105   3.105   3.105   3.105   3.105   3.105
   125.00    3.105   3.105   3.105   3.105   3.105   3.105   3.105   3.105   3.105   3.105   3.105   3.105   3.105   3.105   3.105   3.105   3.105   3.105   3.105   3.105   3.105   3.105   3.105   3.105   3.105   3.105   3.105   3.105   3.105   3.105   3.105   3.105   3.105   3.105   3.105   3.105   3.105   3.105   3.105   3.105   3.105   3.105   3.105   3.105   3.105   3.105   3.105   3.105   3.105   3.105   3.105   3.105   3.105
   120.00    3.105   3.105   3.105   3.105   3.105   3.105   3.105   3.105   3.105   3.105   3.105   3.105   3.105   3.105   3.105   3.105   3.105   3.105   3.105   3.105   3.105   3.105   3.105   3.105   3.105   3.105   3.105   3.105   3.105   3.105   3.105   3.105   3.105   3.105   3.105   3.105   3.105   3.105   3.105   3.105   3.105   3.105   3.105   3.105   3.105   3.105   3.105   3.105   3.105   3.105   3.105   3.105   3.105
   115.00    3.105   3.105   3.105   3.105   3.105   3.105   3.105   3.105   3.105   3.105   3.105   3.105   3.105   3.105   3.105   3.105   3.105   3.105   3.105   3.105   3.105   3.105   3.105   3.105   3.105   3.105   3.105   3.105   3.105   3.105   3.105   3.105   3.105   3.105   3.105   3.105   3.105   3.105   3.105   3.105   3.105   3.105   3.105   3.105   3.105   3.105   3.105   3.105   3.105   3.105   3.105   3.105   3.105
   110.00    3.105   3.105   3.105   3.105   3.105   3.105   3.105   3.105   3.105   3.105   3.105   3.105   3.105   3.105   3.105   3.105   3.105   3.105   3.105   3.105   3.105   3.105   3.105   3.105   3.105   3.105   3.105   3.105   3.105   3.105   3.105   3.105   3.105   3.105   3.105   3.105   3.105   3.105   3.105   3.105   3.105   3.105   3.105   3.105   3.105   3.105   3.105   3.105   3.105   3.105   3.105   3.105   3.105
   105.00    3.105   3.105   3.105   3.105   3.105   3.105   3.105   3.105   3.105   3.105   3.105   3.105   3.105   3.105   3.105   3.105   3.105   3.105   3.105   3.105   3.105   3.105   3.105   3.105   3.105   3.105   3.105   3.105   3.105   3.105   3.105   3.105   3.105   3.105   3.105   3.105   3.105   3.105   3.105   3.105   3.105   3.105   3.105   3.105   3.105   3.105   3.105   3.105   3.105   3.105   3.105   3.105   3.105
   100.00    3.105   3.105   3.105   3.105   3.105   3.105   3.105   3.105   3.105   3.105   3.105   3.105   3.105   3.105   3.105   3.105   3.105   3.105   3.105   3.105   3.105   3.105   3.105   3.105   3.105   3.105   3.105   3.105   3.105   3.105   3.105   3.105   3.105   3.105   3.105   3.105   3.105   3.105   3.105   3.105   3.105   3.105   3.105   3.105   3.105   3.105   3.105   3.105   3.105   3.105   3.105   3.105   3.105
    95.00    3.105   3.105   3.105   3.105   3.105   3.105   3.105   3.105   3.105   3.105   3.105   3.105   3.105   3.105   3.105   3.105   3.105   3.105   3.105   3.105   3.105   3.105   3.105   3.105   3.105   3.105   3.105   3.105   3.105   3.105   3.105   3.105   3.105   3.105   3.105   3.105   3.105   3.105   3.105   3.105   3.105   3.105   3.105   3.105   3.105   3.105   3.105   3.105   3.105   3.105   3.105   3.105   3.105
    90.00    3.105   3.105   3.105   3.105   3.105   3.105   3.105   3.105   3.105   3.105   3.105   3.105   3.105   3.105   3.105   3.105   3.105   3.105   3.105   3.105   3.105   3.105   3.105   3.105   3.105   3.105   3.105   3.105   3.105   3.105   3.105   3.105   3.105   3.105   3.105   3.105   3.105   3.105   3.105   3.105   3.105   3.105   3.105   3.105   3.105   3.105   3.105   3.105   3.105   3.105   3.105   3.105   3.105
    85.00    3.105   3.105   3.105   3.105   3.105   3.105   3.105   3.105   3.105   3.105   3.105   3.105   3.105   3.105   3.105   3.105   3.105   3.105   3.105   3.105   3.105   3.105   3.105   3.105   3.105   3.105   3.105   3.105   3.105   3.105   3.105   3.105   3.105   3.105   3.105   3.105   3.105   3.105   3.105   3.105   3.105   3.105   3.105   3.105   3.105   3.105   3.105   3.105   3.105   3.105   3.105   3.105   3.105
    80.00    3.105   3.105   3.105   3.105   3.105   3.105   3.105   3.105   3.105   3.105   3.105   3.105   3.105   3.105   3.105   3.105   3.105   3.105   3.105   3.105   3.105   3.105   3.105   3.105   3.105   3.105   3.105   3.105   3.105   3.105   3.105   3.105   3.105   3.105   3.105   3.105   3.105   3.105   3.105   3.105   3.105   3.105   3.105   3.105   3.105   3.105   3.105   3.105   3.105   3.105   3.105   3.105   3.105
    75.00    3.105   3.105   3.105   3.105   3.105   3.105   3.105   3.105   3.105   3.105   3.105   3.105   3.105   3.105   3.105   3.105   3.105   3.105   3.105   3.105   3.105   3.105   3.105   3.105   3.105   3.105   3.105   3.105   3.105   3.105   3.105   3.105   3.105   3.105   3.105   3.105   3.105   3.105   3.105   3.105   3.105   3.105   3.105   3.105   3.105   3.105   3.105   3.105   3.105   3.105   3.105   3.105   3.105
    70.00    3.105   3.105   3.105   3.105   3.105   3.105   3.105   3.105   3.105   3.105   3.105   3.105   3.105   3.105   3.105   3.105   3.105   3.105   3.105   3.105   3.105   3.105   3.105   3.105   3.105   3.105   3.105   3.105   3.105   3.105   3.105   3.105   3.105   3.105   3.105   3.105   3.105   3.105   3.105   3.105   3.105   3.105   3.105   3.105   3.105   3.105   3.105   3.105   3.105   3.105   3.105   3.105   3.105
    65.00    3.105   3.105   3.105   3.105   3.105   3.105   3.105   3.105   3.105   3.105   3.105   3.105   3.105   3.105   3.105   3.105   3.105   3.105   3.105   3.105   3.105   3.105   3.105   3.105   3.105   3.105   3.105   3.105   3.105   3.105   3.105   3.105   3.105   3.105   3.105   3.105   3.105   3.105   3.105   3.105   3.105   3.105   3.105   3.105   3.105   3.105   3.105   3.105   3.105   3.105   3.105   3.105   3.105
    60.00    3.105   3.105   3.105   3.105   3.105   3.105   3.105   3.105   3.105   3.105   3.105   3.105   3.105   3.105   3.105   3.105   3.105   3.105   3.105   3.105   3.105   3.105   3.105   3.105   3.105   3.105   3.105   3.105   3.105   3.105   3.105   3.105   3.105   3.105   3.105   3.105   3.105   3.105   3.105   3.105   3.105   3.105   3.105   3.105   3.105   3.105   3.105   3.105   3.105   3.105   3.105   3.105   3.105
    55.00    3.105   3.105   3.105   3.105   3.105   3.105   3.105   3.105   3.105   3.105   3.105   3.105   3.105   3.105   3.105   3.105   3.105   3.105   3.105   3.105   3.105   3.105   3.105   3.105   3.105   3.105   3.105   3.105   3.105   3.105   3.105   3.105   3.105   3.105   3.105   3.105   3.105   3.105   3.105   3.105   3.105   3.105   3.105   3.105   3.105   3.105   3.105   3.105   3.105   3.105   3.105   3.105   3.105
    50.00    3.105   3.105   3.105   3.105   3.105   3.105   3.105   3.105   3.105   3.105   3.105   3.105   3.105   3.105   3.105   3.105   3.105   3.105   3.105   3.105   3.105   3.105   3.105   3.105   3.105   3.105   3.105   3.105   3.105   3.105   3.105   3.105   3.105   3.105   3.105   3.105   3.105   3.105   3.105   3.105   3.105   3.105   3.105   3.105   3.105   3.105   3.105   3.105   3.105   3.105   3.105   3.105   3.105
    45.00    3.105   3.105   3.105   3.105   3.105   3.105   3.105   3.105   3.105   3.105   3.105   3.105   3.105   3.105   3.105   3.105   3.105   3.105   3.105   3.105   3.105   3.105   3.105   3.105   3.105   3.105   3.105   3.105   3.105   3.105   3.105   3.105   3.105   3.105   3.105   3.105   3.105   3.105   3.105   3.105   3.105   3.105   3.105   3.105   3.105   3.105   3.105   3.105   3.105   3.105   3.105   3.105   3.105
    40.00    3.105   3.105   3.105   3.105   3.105   3.105   3.105   3.105   3.105   3.105   3.105   3.105   3.105   3.105   3.105   3.105   3.105   3.105   3.105   3.105   3.105   3.105   3.105   3.105   3.105   3.105   3.105   3.105   3.105   3.105   3.105   3.105   3.105   3.105   3.105   3.105   3.105   3.105   3.105   3.105   3.105   3.105   3.105   3.105   3.105   3.105   3.105   3.105   3.105   3.105   3.105   3.105   3.105
    35.00    3.105   3.105   3.105   3.105   3.105   3.105   3.105   3.105   3.105   3.105   3.105   3.105   3.105   3.105   3.105   3.105   3.105   3.105   3.105   3.105   3.105   3.105   3.105   3.105   3.105   3.105   3.105   3.105   3.105   3.105   3.105   3.105   3.105   3.105   3.105   3.105   3.105   3.105   3.105   3.105   3.105   3.105   3.105   3.105   3.105   3.105   3.105   3.105   3.105   3.105   3.105   3.105   3.105
    30.00    3.105   3.105   3.105   3.105   3.105   3.105   3.105   3.105   3.105   3.105   3.105   3.105   3.105   3.105   3.105   3.105   3.105   3.105   3.105   3.105   3.105   3.105   3.105   3.105   3.105   3.105   3.105   3.105   3.105   3.105   3.105   3.105   3.105   3.105   3.105   3.105   3.105   3.105   3.105   3.105   3.105   3.105   3.105   3.105   3.105   3.105   3.105   3.105   3.105   3.105   3.105   3.105   3.105
    25.00    3.105   3.105   3.105   3.105   3.105   3.105   3.105   3.105   3.105   3.105   3.105   3.105   3.105   3.105   3.105   3.105   3.105   3.105   3.105   3.105   3.105   3.105   3.105   3.105   3.105   3.105   3.105   3.105   3.105   3.105   3.105   3.105   3.105   3.105   3.105   3.105   3.105   3.105   3.105   3.105   3.105   3.105   3.105   3.105   3.105   3.105   3.105   3.105   3.105   3.105   3.105   3.105   3.105
    20.00    3.105   3.105   3.105   3.105   3.105   3.105   3.105   3.105   3.105   3.105   3.105   3.105   3.105   3.105   3.105   3.105   3.105   3.105   3.105   3.105   3.105   3.105   3.105   3.105   3.105   3.105   3.105   3.105   3.105   3.105   3.105   3.105   3.105   3.105   3.105   3.105   3.105   3.105   3.105   3.105   3.105   3.105   3.105   3.105   3.105   3.105   3.105   3.105   3.105   3.105   3.105   3.105   3.105
    15.00    3.105   3.105   3.105   3.105   3.105   3.105   3.105   3.105   3.105   3.105   3.105   3.105   3.105   3.105   3.105   3.105   3.105   3.105   3.105   3.105   3.105   3.105   3.105   3.105   3.105   3.105   3.105   3.105   3.105   3.105   3.105   3.105   3.105   3.105   3.105   3.105   3.105   3.105   3.105   3.105   3.105   3.105   3.105   3.105   3.105   3.105   3.105   3.105   3.105   3.105   3.105   3.105   3.105
    10.00    3.105   3.105   3.105   3.105   3.105   3.105   3.105   3.105   3.105   3.105   3.105   3.105   3.105   3.105   3.105   3.105   3.105   3.105   3.105   3.105   3.105   3.105   3.105   3.105   3.105   3.105   3.105   3.105   3.105   3.105   3.105   3.105   3.105   3.105   3.105   3.105   3.105   3.105   3.105   3.105   3.105   3.105   3.105   3.105   3.105   3.105   3.105   3.105   3.105   3.105   3.105   3.105   3.105

   Height   Standard deviation at grid points for the w component:
   270.00    1.914   1.914   1.914   1.914   1.914   1.914   1.914   1.914   1.914   1.914   1.914   1.914   1.914   1.914   1.914   1.914   1.914   1.914   1.914   1.914   1.914   1.914   1.914   1.914   1.914   1.914   1.914   1.914   1.914   1.914   1.914   1.914   1.914   1.914   1.914   1.914   1.914   1.914   1.914   1.914   1.914   1.914   1.914   1.914   1.914   1.914   1.914   1.914   1.914   1.914   1.914   1.914   1.914
   265.00    1.914   1.914   1.914   1.914   1.914   1.914   1.914   1.914   1.914   1.914   1.914   1.914   1.914   1.914   1.914   1.914   1.914   1.914   1.914   1.914   1.914   1.914   1.914   1.914   1.914   1.914   1.914   1.914   1.914   1.914   1.914   1.914   1.914   1.914   1.914   1.914   1.914   1.914   1.914   1.914   1.914   1.914   1.914   1.914   1.914   1.914   1.914   1.914   1.914   1.914   1.914   1.914   1.914
   260.00    1.914   1.914   1.914   1.914   1.914   1.914   1.914   1.914   1.914   1.914   1.914   1.914   1.914   1.914   1.914   1.914   1.914   1.914   1.914   1.914   1.914   1.914   1.914   1.914   1.914   1.914   1.914   1.914   1.914   1.914   1.914   1.914   1.914   1.914   1.914   1.914   1.914   1.914   1.914   1.914   1.914   1.914   1.914   1.914   1.914   1.914   1.914   1.914   1.914   1.914   1.914   1.914   1.914
   255.00    1.914   1.914   1.914   1.914   1.914   1.914   1.914   1.914   1.914   1.914   1.914   1.914   1.914   1.914   1.914   1.914   1.914   1.914   1.914   1.914   1.914   1.914   1.914   1.914   1.914   1.914   1.914   1.914   1.914   1.914   1.914   1.914   1.914   1.914   1.914   1.914   1.914   1.914   1.914   1.914   1.914   1.914   1.914   1.914   1.914   1.914   1.914   1.914   1.914   1.914   1.914   1.914   1.914
   250.00    1.914   1.914   1.914   1.914   1.914   1.914   1.914   1.914   1.914   1.914   1.914   1.914   1.914   1.914   1.914   1.914   1.914   1.914   1.914   1.914   1.914   1.914   1.914   1.914   1.914   1.914   1.914   1.914   1.914   1.914   1.914   1.914   1.914   1.914   1.914   1.914   1.914   1.914   1.914   1.914   1.914   1.914   1.914   1.914   1.914   1.914   1.914   1.914   1.914   1.914   1.914   1.914   1.914
   245.00    1.914   1.914   1.914   1.914   1.914   1.914   1.914   1.914   1.914   1.914   1.914   1.914   1.914   1.914   1.914   1.914   1.914   1.914   1.914   1.914   1.914   1.914   1.914   1.914   1.914   1.914   1.914   1.914   1.914   1.914   1.914   1.914   1.914   1.914   1.914   1.914   1.914   1.914   1.914   1.914   1.914   1.914   1.914   1.914   1.914   1.914   1.914   1.914   1.914   1.914   1.914   1.914   1.914
   240.00    1.914   1.914   1.914   1.914   1.914   1.914   1.914   1.914   1.914   1.914   1.914   1.914   1.914   1.914   1.914   1.914   1.914   1.914   1.914   1.914   1.914   1.914   1.914   1.914   1.914   1.914   1.914   1.914   1.914   1.914   1.914   1.914   1.914   1.914   1.914   1.914   1.914   1.914   1.914   1.914   1.914   1.914   1.914   1.914   1.914   1.914   1.914   1.914   1.914   1.914   1.914   1.914   1.914
   235.00    1.914   1.914   1.914   1.914   1.914   1.914   1.914   1.914   1.914   1.914   1.914   1.914   1.914   1.914   1.914   1.914   1.914   1.914   1.914   1.914   1.914   1.914   1.914   1.914   1.914   1.914   1.914   1.914   1.914   1.914   1.914   1.914   1.914   1.914   1.914   1.914   1.914   1.914   1.914   1.914   1.914   1.914   1.914   1.914   1.914   1.914   1.914   1.914   1.914   1.914   1.914   1.914   1.914
   230.00    1.914   1.914   1.914   1.914   1.914   1.914   1.914   1.914   1.914   1.914   1.914   1.914   1.914   1.914   1.914   1.914   1.914   1.914   1.914   1.914   1.914   1.914   1.914   1.914   1.914   1.914   1.914   1.914   1.914   1.914   1.914   1.914   1.914   1.914   1.914   1.914   1.914   1.914   1.914   1.914   1.914   1.914   1.914   1.914   1.914   1.914   1.914   1.914   1.914   1.914   1.914   1.914   1.914
   225.00    1.914   1.914   1.914   1.914   1.914   1.914   1.914   1.914   1.914   1.914   1.914   1.914   1.914   1.914   1.914   1.914   1.914   1.914   1.914   1.914   1.914   1.914   1.914   1.914   1.914   1.914   1.914   1.914   1.914   1.914   1.914   1.914   1.914   1.914   1.914   1.914   1.914   1.914   1.914   1.914   1.914   1.914   1.914   1.914   1.914   1.914   1.914   1.914   1.914   1.914   1.914   1.914   1.914
   220.00    1.914   1.914   1.914   1.914   1.914   1.914   1.914   1.914   1.914   1.914   1.914   1.914   1.914   1.914   1.914   1.914   1.914   1.914   1.914   1.914   1.914   1.914   1.914   1.914   1.914   1.914   1.914   1.914   1.914   1.914   1.914   1.914   1.914   1.914   1.914   1.914   1.914   1.914   1.914   1.914   1.914   1.914   1.914   1.914   1.914   1.914   1.914   1.914   1.914   1.914   1.914   1.914   1.914
   215.00    1.914   1.914   1.914   1.914   1.914   1.914   1.914   1.914   1.914   1.914   1.914   1.914   1.914   1.914   1.914   1.914   1.914   1.914   1.914   1.914   1.914   1.914   1.914   1.914   1.914   1.914   1.914   1.914   1.914   1.914   1.914   1.914   1.914   1.914   1.914   1.914   1.914   1.914   1.914   1.914   1.914   1.914   1.914   1.914   1.914   1.914   1.914   1.914   1.914   1.914   1.914   1.914   1.914
   210.00    1.914   1.914   1.914   1.914   1.914   1.914   1.914   1.914   1.914   1.914   1.914   1.914   1.914   1.914   1.914   1.914   1.914   1.914   1.914   1.914   1.914   1.914   1.914   1.914   1.914   1.914   1.914   1.914   1.914   1.914   1.914   1.914   1.914   1.914   1.914   1.914   1.914   1.914   1.914   1.914   1.914   1.914   1.914   1.914   1.914   1.914   1.914   1.914   1.914   1.914   1.914   1.914   1.914
   205.00    1.914   1.914   1.914   1.914   1.914   1.914   1.914   1.914   1.914   1.914   1.914   1.914   1.914   1.914   1.914   1.914   1.914   1.914   1.914   1.914   1.914   1.914   1.914   1.914   1.914   1.914   1.914   1.914   1.914   1.914   1.914   1.914   1.914   1.914   1.914   1.914   1.914   1.914   1.914   1.914   1.914   1.914   1.914   1.914   1.914   1.914   1.914   1.914   1.914   1.914   1.914   1.914   1.914
   200.00    1.914   1.914   1.914   1.914   1.914   1.914   1.914   1.914   1.914   1.914   1.914   1.914   1.914   1.914   1.914   1.914   1.914   1.914   1.914   1.914   1.914   1.914   1.914   1.914   1.914   1.914   1.914   1.914   1.914   1.914   1.914   1.914   1.914   1.914   1.914   1.914   1.914   1.914   1.914   1.914   1.914   1.914   1.914   1.914   1.914   1.914   1.914   1.914   1.914   1.914   1.914   1.914   1.914
   195.00    1.914   1.914   1.914   1.914   1.914   1.914   1.914   1.914   1.914   1.914   1.914   1.914   1.914   1.914   1.914   1.914   1.914   1.914   1.914   1.914   1.914   1.914   1.914   1.914   1.914   1.914   1.914   1.914   1.914   1.914   1.914   1.914   1.914   1.914   1.914   1.914   1.914   1.914   1.914   1.914   1.914   1.914   1.914   1.914   1.914   1.914   1.914   1.914   1.914   1.914   1.914   1.914   1.914
   190.00    1.914   1.914   1.914   1.914   1.914   1.914   1.914   1.914   1.914   1.914   1.914   1.914   1.914   1.914   1.914   1.914   1.914   1.914   1.914   1.914   1.914   1.914   1.914   1.914   1.914   1.914   1.914   1.914   1.914   1.914   1.914   1.914   1.914   1.914   1.914   1.914   1.914   1.914   1.914   1.914   1.914   1.914   1.914   1.914   1.914   1.914   1.914   1.914   1.914   1.914   1.914   1.914   1.914
   185.00    1.914   1.914   1.914   1.914   1.914   1.914   1.914   1.914   1.914   1.914   1.914   1.914   1.914   1.914   1.914   1.914   1.914   1.914   1.914   1.914   1.914   1.914   1.914   1.914   1.914   1.914   1.914   1.914   1.914   1.914   1.914   1.914   1.914   1.914   1.914   1.914   1.914   1.914   1.914   1.914   1.914   1.914   1.914   1.914   1.914   1.914   1.914   1.914   1.914   1.914   1.914   1.914   1.914
   180.00    1.914   1.914   1.914   1.914   1.914   1.914   1.914   1.914   1.914   1.914   1.914   1.914   1.914   1.914   1.914   1.914   1.914   1.914   1.914   1.914   1.914   1.914   1.914   1.914   1.914   1.914   1.914   1.914   1.914   1.914   1.914   1.914   1.914   1.914   1.914   1.914   1.914   1.914   1.914   1.914   1.914   1.914   1.914   1.914   1.914   1.914   1.914   1.914   1.914   1.914   1.914   1.914   1.914
   175.00    1.914   1.914   1.914   1.914   1.914   1.914   1.914   1.914   1.914   1.914   1.914   1.914   1.914   1.914   1.914   1.914   1.914   1.914   1.914   1.914   1.914   1.914   1.914   1.914   1.914   1.914   1.914   1.914   1.914   1.914   1.914   1.914   1.914   1.914   1.914   1.914   1.914   1.914   1.914   1.914   1.914   1.914   1.914   1.914   1.914   1.914   1.914   1.914   1.914   1.914   1.914   1.914   1.914
   170.00    1.914   1.914   1.914   1.914   1.914   1.914   1.914   1.914   1.914   1.914   1.914   1.914   1.914   1.914   1.914   1.914   1.914   1.914   1.914   1.914   1.914   1.914   1.914   1.914   1.914   1.914   1.914   1.914   1.914   1.914   1.914   1.914   1.914   1.914   1.914   1.914   1.914   1.914   1.914   1.914   1.914   1.914   1.914   1.914   1.914   1.914   1.914   1.914   1.914   1.914   1.914   1.914   1.914
   165.00    1.914   1.914   1.914   1.914   1.914   1.914   1.914   1.914   1.914   1.914   1.914   1.914   1.914   1.914   1.914   1.914   1.914   1.914   1.914   1.914   1.914   1.914   1.914   1.914   1.914   1.914   1.914   1.914   1.914   1.914   1.914   1.914   1.914   1.914   1.914   1.914   1.914   1.914   1.914   1.914   1.914   1.914   1.914   1.914   1.914   1.914   1.914   1.914   1.914   1.914   1.914   1.914   1.914
   160.00    1.914   1.914   1.914   1.914   1.914   1.914   1.914   1.914   1.914   1.914   1.914   1.914   1.914   1.914   1.914   1.914   1.914   1.914   1.914   1.914   1.914   1.914   1.914   1.914   1.914   1.914   1.914   1.914   1.914   1.914   1.914   1.914   1.914   1.914   1.914   1.914   1.914   1.914   1.914   1.914   1.914   1.914   1.914   1.914   1.914   1.914   1.914   1.914   1.914   1.914   1.914   1.914   1.914
   155.00    1.914   1.914   1.914   1.914   1.914   1.914   1.914   1.914   1.914   1.914   1.914   1.914   1.914   1.914   1.914   1.914   1.914   1.914   1.914   1.914   1.914   1.914   1.914   1.914   1.914   1.914   1.914   1.914   1.914   1.914   1.914   1.914   1.914   1.914   1.914   1.914   1.914   1.914   1.914   1.914   1.914   1.914   1.914   1.914   1.914   1.914   1.914   1.914   1.914   1.914   1.914   1.914   1.914
   150.00    1.914   1.914   1.914   1.914   1.914   1.914   1.914   1.914   1.914   1.914   1.914   1.914   1.914   1.914   1.914   1.914   1.914   1.914   1.914   1.914   1.914   1.914   1.914   1.914   1.914   1.914   1.914   1.914   1.914   1.914   1.914   1.914   1.914   1.914   1.914   1.914   1.914   1.914   1.914   1.914   1.914   1.914   1.914   1.914   1.914   1.914   1.914   1.914   1.914   1.914   1.914   1.914   1.914
   145.00    1.914   1.914   1.914   1.914   1.914   1.914   1.914   1.914   1.914   1.914   1.914   1.914   1.914   1.914   1.914   1.914   1.914   1.914   1.914   1.914   1.914   1.914   1.914   1.914   1.914   1.914   1.914   1.914   1.914   1.914   1.914   1.914   1.914   1.914   1.914   1.914   1.914   1.914   1.914   1.914   1.914   1.914   1.914   1.914   1.914   1.914   1.914   1.914   1.914   1.914   1.914   1.914   1.914
   140.00    1.914   1.914   1.914   1.914   1.914   1.914   1.914   1.914   1.914   1.914   1.914   1.914   1.914   1.914   1.914   1.914   1.914   1.914   1.914   1.914   1.914   1.914   1.914   1.914   1.914   1.914   1.914   1.914   1.914   1.914   1.914   1.914   1.914   1.914   1.914   1.914   1.914   1.914   1.914   1.914   1.914   1.914   1.914   1.914   1.914   1.914   1.914   1.914   1.914   1.914   1.914   1.914   1.914
   135.00    1.914   1.914   1.914   1.914   1.914   1.914   1.914   1.914   1.914   1.914   1.914   1.914   1.914   1.914   1.914   1.914   1.914   1.914   1.914   1.914   1.914   1.914   1.914   1.914   1.914   1.914   1.914   1.914   1.914   1.914   1.914   1.914   1.914   1.914   1.914   1.914   1.914   1.914   1.914   1.914   1.914   1.914   1.914   1.914   1.914   1.914   1.914   1.914   1.914   1.914   1.914   1.914   1.914
   130.00    1.914   1.914   1.914   1.914   1.914   1.914   1.914   1.914   1.914   1.914   1.914   1.914   1.914   1.914   1.914   1.914   1.914   1.914   1.914   1.914   1.914   1.914   1.914   1.914   1.914   1.914   1.914   1.914   1.914   1.914   1.914   1.914   1.914   1.914   1.914   1.914   1.914   1.914   1.914   1.914   1.914   1.914   1.914   1.914   1.914   1.914   1.914   1.914   1.914   1.914   1.914   1.914   1.914
   125.00    1.914   1.914   1.914   1.914   1.914   1.914   1.914   1.914   1.914   1.914   1.914   1.914   1.914   1.914   1.914   1.914   1.914   1.914   1.914   1.914   1.914   1.914   1.914   1.914   1.914   1.914   1.914   1.914   1.914   1.914   1.914   1.914   1.914   1.914   1.914   1.914   1.914   1.914   1.914   1.914   1.914   1.914   1.914   1.914   1.914   1.914   1.914   1.914   1.914   1.914   1.914   1.914   1.914
   120.00    1.914   1.914   1.914   1.914   1.914   1.914   1.914   1.914   1.914   1.914   1.914   1.914   1.914   1.914   1.914   1.914   1.914   1.914   1.914   1.914   1.914   1.914   1.914   1.914   1.914   1.914   1.914   1.914   1.914   1.914   1.914   1.914   1.914   1.914   1.914   1.914   1.914   1.914   1.914   1.914   1.914   1.914   1.914   1.914   1.914   1.914   1.914   1.914   1.914   1.914   1.914   1.914   1.914
   115.00    1.914   1.914   1.914   1.914   1.914   1.914   1.914   1.914   1.914   1.914   1.914   1.914   1.914   1.914   1.914   1.914   1.914   1.914   1.914   1.914   1.914   1.914   1.914   1.914   1.914   1.914   1.914   1.914   1.914   1.914   1.914   1.914   1.914   1.914   1.914   1.914   1.914   1.914   1.914   1.914   1.914   1.914   1.914   1.914   1.914   1.914   1.914   1.914   1.914   1.914   1.914   1.914   1.914
   110.00    1.914   1.914   1.914   1.914   1.914   1.914   1.914   1.914   1.914   1.914   1.914   1.914   1.914   1.914   1.914   1.914   1.914   1.914   1.914   1.914   1.914   1.914   1.914   1.914   1.914   1.914   1.914   1.914   1.914   1.914   1.914   1.914   1.914   1.914   1.914   1.914   1.914   1.914   1.914   1.914   1.914   1.914   1.914   1.914   1.914   1.914   1.914   1.914   1.914   1.914   1.914   1.914   1.914
   105.00    1.914   1.914   1.914   1.914   1.914   1.914   1.914   1.914   1.914   1.914   1.914   1.914   1.914   1.914   1.914   1.914   1.914   1.914   1.914   1.914   1.914   1.914   1.914   1.914   1.914   1.914   1.914   1.914   1.914   1.914   1.914   1.914   1.914   1.914   1.914   1.914   1.914   1.914   1.914   1.914   1.914   1.914   1.914   1.914   1.914   1.914   1.914   1.914   1.914   1.914   1.914   1.914   1.914
   100.00    1.914   1.914   1.914   1.914   1.914   1.914   1.914   1.914   1.914   1.914   1.914   1.914   1.914   1.914   1.914   1.914   1.914   1.914   1.914   1.914   1.914   1.914   1.914   1.914   1.914   1.914   1.914   1.914   1.914   1.914   1.914   1.914   1.914   1.914   1.914   1.914   1.914   1.914   1.914   1.914   1.914   1.914   1.914   1.914   1.914   1.914   1.914   1.914   1.914   1.914   1.914   1.914   1.914
    95.00    1.914   1.914   1.914   1.914   1.914   1.914   1.914   1.914   1.914   1.914   1.914   1.914   1.914   1.914   1.914   1.914   1.914   1.914   1.914   1.914   1.914   1.914   1.914   1.914   1.914   1.914   1.914   1.914   1.914   1.914   1.914   1.914   1.914   1.914   1.914   1.914   1.914   1.914   1.914   1.914   1.914   1.914   1.914   1.914   1.914   1.914   1.914   1.914   1.914   1.914   1.914   1.914   1.914
    90.00    1.914   1.914   1.914   1.914   1.914   1.914   1.914   1.914   1.914   1.914   1.914   1.914   1.914   1.914   1.914   1.914   1.914   1.914   1.914   1.914   1.914   1.914   1.914   1.914   1.914   1.914   1.914   1.914   1.914   1.914   1.914   1.914   1.914   1.914   1.914   1.914   1.914   1.914   1.914   1.914   1.914   1.914   1.914   1.914   1.914   1.914   1.914   1.914   1.914   1.914   1.914   1.914   1.914
    85.00    1.914   1.914   1.914   1.914   1.914   1.914   1.914   1.914   1.914   1.914   1.914   1.914   1.914   1.914   1.914   1.914   1.914   1.914   1.914   1.914   1.914   1.914   1.914   1.914   1.914   1.914   1.914   1.914   1.914   1.914   1.914   1.914   1.914   1.914   1.914   1.914   1.914   1.914   1.914   1.914   1.914   1.914   1.914   1.914   1.914   1.914   1.914   1.914   1.914   1.914   1.914   1.914   1.914
    80.00    1.914   1.914   1.914   1.914   1.914   1.914   1.914   1.914   1.914   1.914   1.914   1.914   1.914   1.914   1.914   1.914   1.914   1.914   1.914   1.914   1.914   1.914   1.914   1.914   1.914   1.914   1.914   1.914   1.914   1.914   1.914   1.914   1.914   1.914   1.914   1.914   1.914   1.914   1.914   1.914   1.914   1.914   1.914   1.914   1.914   1.914   1.914   1.914   1.914   1.914   1.914   1.914   1.914
    75.00    1.914   1.914   1.914   1.914   1.914   1.914   1.914   1.914   1.914   1.914   1.914   1.914   1.914   1.914   1.914   1.914   1.914   1.914   1.914   1.914   1.914   1.914   1.914   1.914   1.914   1.914   1.914   1.914   1.914   1.914   1.914   1.914   1.914   1.914   1.914   1.914   1.914   1.914   1.914   1.914   1.914   1.914   1.914   1.914   1.914   1.914   1.914   1.914   1.914   1.914   1.914   1.914   1.914
    70.00    1.914   1.914   1.914   1.914   1.914   1.914   1.914   1.914   1.914   1.914   1.914   1.914   1.914   1.914   1.914   1.914   1.914   1.914   1.914   1.914   1.914   1.914   1.914   1.914   1.914   1.914   1.914   1.914   1.914   1.914   1.914   1.914   1.914   1.914   1.914   1.914   1.914   1.914   1.914   1.914   1.914   1.914   1.914   1.914   1.914   1.914   1.914   1.914   1.914   1.914   1.914   1.914   1.914
    65.00    1.914   1.914   1.914   1.914   1.914   1.914   1.914   1.914   1.914   1.914   1.914   1.914   1.914   1.914   1.914   1.914   1.914   1.914   1.914   1.914   1.914   1.914   1.914   1.914   1.914   1.914   1.914   1.914   1.914   1.914   1.914   1.914   1.914   1.914   1.914   1.914   1.914   1.914   1.914   1.914   1.914   1.914   1.914   1.914   1.914   1.914   1.914   1.914   1.914   1.914   1.914   1.914   1.914
    60.00    1.914   1.914   1.914   1.914   1.914   1.914   1.914   1.914   1.914   1.914   1.914   1.914   1.914   1.914   1.914   1.914   1.914   1.914   1.914   1.914   1.914   1.914   1.914   1.914   1.914   1.914   1.914   1.914   1.914   1.914   1.914   1.914   1.914   1.914   1.914   1.914   1.914   1.914   1.914   1.914   1.914   1.914   1.914   1.914   1.914   1.914   1.914   1.914   1.914   1.914   1.914   1.914   1.914
    55.00    1.914   1.914   1.914   1.914   1.914   1.914   1.914   1.914   1.914   1.914   1.914   1.914   1.914   1.914   1.914   1.914   1.914   1.914   1.914   1.914   1.914   1.914   1.914   1.914   1.914   1.914   1.914   1.914   1.914   1.914   1.914   1.914   1.914   1.914   1.914   1.914   1.914   1.914   1.914   1.914   1.914   1.914   1.914   1.914   1.914   1.914   1.914   1.914   1.914   1.914   1.914   1.914   1.914
    50.00    1.914   1.914   1.914   1.914   1.914   1.914   1.914   1.914   1.914   1.914   1.914   1.914   1.914   1.914   1.914   1.914   1.914   1.914   1.914   1.914   1.914   1.914   1.914   1.914   1.914   1.914   1.914   1.914   1.914   1.914   1.914   1.914   1.914   1.914   1.914   1.914   1.914   1.914   1.914   1.914   1.914   1.914   1.914   1.914   1.914   1.914   1.914   1.914   1.914   1.914   1.914   1.914   1.914
    45.00    1.914   1.914   1.914   1.914   1.914   1.914   1.914   1.914   1.914   1.914   1.914   1.914   1.914   1.914   1.914   1.914   1.914   1.914   1.914   1.914   1.914   1.914   1.914   1.914   1.914   1.914   1.914   1.914   1.914   1.914   1.914   1.914   1.914   1.914   1.914   1.914   1.914   1.914   1.914   1.914   1.914   1.914   1.914   1.914   1.914   1.914   1.914   1.914   1.914   1.914   1.914   1.914   1.914
    40.00    1.914   1.914   1.914   1.914   1.914   1.914   1.914   1.914   1.914   1.914   1.914   1.914   1.914   1.914   1.914   1.914   1.914   1.914   1.914   1.914   1.914   1.914   1.914   1.914   1.914   1.914   1.914   1.914   1.914   1.914   1.914   1.914   1.914   1.914   1.914   1.914   1.914   1.914   1.914   1.914   1.914   1.914   1.914   1.914   1.914   1.914   1.914   1.914   1.914   1.914   1.914   1.914   1.914
    35.00    1.914   1.914   1.914   1.914   1.914   1.914   1.914   1.914   1.914   1.914   1.914   1.914   1.914   1.914   1.914   1.914   1.914   1.914   1.914   1.914   1.914   1.914   1.914   1.914   1.914   1.914   1.914   1.914   1.914   1.914   1.914   1.914   1.914   1.914   1.914   1.914   1.914   1.914   1.914   1.914   1.914   1.914   1.914   1.914   1.914   1.914   1.914   1.914   1.914   1.914   1.914   1.914   1.914
    30.00    1.914   1.914   1.914   1.914   1.914   1.914   1.914   1.914   1.914   1.914   1.914   1.914   1.914   1.914   1.914   1.914   1.914   1.914   1.914   1.914   1.914   1.914   1.914   1.914   1.914   1.914   1.914   1.914   1.914   1.914   1.914   1.914   1.914   1.914   1.914   1.914   1.914   1.914   1.914   1.914   1.914   1.914   1.914   1.914   1.914   1.914   1.914   1.914   1.914   1.914   1.914   1.914   1.914
    25.00    1.914   1.914   1.914   1.914   1.914   1.914   1.914   1.914   1.914   1.914   1.914   1.914   1.914   1.914   1.914   1.914   1.914   1.914   1.914   1.914   1.914   1.914   1.914   1.914   1.914   1.914   1.914   1.914   1.914   1.914   1.914   1.914   1.914   1.914   1.914   1.914   1.914   1.914   1.914   1.914   1.914   1.914   1.914   1.914   1.914   1.914   1.914   1.914   1.914   1.914   1.914   1.914   1.914
    20.00    1.914   1.914   1.914   1.914   1.914   1.914   1.914   1.914   1.914   1.914   1.914   1.914   1.914   1.914   1.914   1.914   1.914   1.914   1.914   1.914   1.914   1.914   1.914   1.914   1.914   1.914   1.914   1.914   1.914   1.914   1.914   1.914   1.914   1.914   1.914   1.914   1.914   1.914   1.914   1.914   1.914   1.914   1.914   1.914   1.914   1.914   1.914   1.914   1.914   1.914   1.914   1.914   1.914
    15.00    1.914   1.914   1.914   1.914   1.914   1.914   1.914   1.914   1.914   1.914   1.914   1.914   1.914   1.914   1.914   1.914   1.914   1.914   1.914   1.914   1.914   1.914   1.914   1.914   1.914   1.914   1.914   1.914   1.914   1.914   1.914   1.914   1.914   1.914   1.914   1.914   1.914   1.914   1.914   1.914   1.914   1.914   1.914   1.914   1.914   1.914   1.914   1.914   1.914   1.914   1.914   1.914   1.914
    10.00    1.914   1.914   1.914   1.914   1.914   1.914   1.914   1.914   1.914   1.914   1.914   1.914   1.914   1.914   1.914   1.914   1.914   1.914   1.914   1.914   1.914   1.914   1.914   1.914   1.914   1.914   1.914   1.914   1.914   1.914   1.914   1.914   1.914   1.914   1.914   1.914   1.914   1.914   1.914   1.914   1.914   1.914   1.914   1.914   1.914   1.914   1.914   1.914   1.914   1.914   1.914   1.914   1.914

   Mean standard deviation across all grid points:
      u component:    3.689 m/s
      v component:    3.105 m/s
      w component:    1.914 m/s


U-component (X) statistics from the hub grid point:

   Mean =  25.0000 m/s
   TI   =  12.8410 %

Nyquist frequency of turbulent wind field =        10.000 Hz


Processing complete.  2633.3 CPU seconds used.
