
This summary file was generated by TurbSim (v1.50, 25-Sep-2009) on 05-Nov-2024 at 15:35:06.


Runtime Options:

 -38475940  Random seed #1
    RANLUX  Type of random number generator
         F  Output binary HH turbulence parameters?
         F  Output formatted turbulence parameters?
         F  Output AeroDyn HH files?
         T  Output AeroDyn FF files?
         T  Output BLADED FF files?
         F  Output tower data?
         F  Output formatted FF files?
         F  Output coherent turbulence time step file?
         T  Clockwise rotation when looking downwind?
 0 -  NONE  IEC turbulence models scaled to exact specified standard deviation


Turbine/Model Specifications:

        53  Vertical grid-point matrix dimension
        53  Horizontal grid-point matrix dimension
     0.050  Time step [seconds]
   650.000  Analysis time [seconds]
   610.000  Usable output time [seconds]
   140.000  Hub height [m]
   260.000  Grid height [m]
   260.000  Grid width [m]
     0.000  Vertical flow angle [degrees]
     0.000  Horizontal flow angle [degrees]


Meteorological Boundary Conditions:

    IECKAI  IEC Kaimal spectral model
         1  IEC standard: IEC 61400-1 Ed. 3: 2005
         B  IEC turbulence characteristic
      3ETM  IEC Extreme Turbulence Model
     2.000  IEC Extreme Turbulence Model (ETM) "c" parameter [m/s]
       IEC  Wind profile type
   140.000  Reference height [m]
    21.000  Reference wind speed [m/s]
       N/A  Jet height [m]
     0.200  Power law exponent
     0.030  Surface roughness length [m]


You have requested that the following file(s) be generated:

   .\TurbSim.bts (AeroDyn/TurbSim full-field wind file)
   .\TurbSim.wnd (AeroDyn/BLADED full-field wnd file)


Turbulence Simulation Scaling Parameter Summary:

   Turbulence model used                            =  IEC Kaimal
   Turbulence characteristic                        =  3B
   IEC turbulence type                              =  Extreme Turbulence Model
   Reference wind speed average over 10 minutes     =   37.500 m/s
   Annual wind speed average at hub height          =    7.500 m/s
   IEC standard                                     =  IEC 61400-1 Ed. 3: 2005
   Mean wind speed at hub height                    =   21.000 m/s
   Expected value of turbulence intensity at 15 m/s =   14.000%
   Characteristic value of standard deviation       =    3.685 m/s
   Turbulence scale                                 =   42.000 m
   u-component integral scale                       =  340.200 m
   Coherency scale                                  =  340.200 m
   Characteristic value of hub turbulence intensity =   17.545%
   Gradient Richardson number                       =    0.000

   Wind profile type                                =  Power law on rotor disk, logarithmic elsewhere
   Power law exponent                               =    0.200
   Mean shear across rotor disk                     =    0.044 (m/s)/m
   Assumed rotor diameter                           =  260.000 m
   Surface roughness length                         =    0.030 m

   Number of time steps in the FFT                  =    13000
   Number of time steps output                      =    12448


Mean Flow Angles:

   Vertical   =   0.0 degrees
   Horizontal =   0.0 degrees

Mean Wind Speed Profile:

   Height    Wind Speed   Horizontal Angle  U-comp (X)   V-comp (Y)   W-comp (Z)
     (m)        (m/s)         (degrees)       (m/s)        (m/s)        (m/s)   
   ------    ----------   ----------------  ----------   ----------   ----------
    270.0       23.95            0.00         23.95         0.00         0.00
    265.0       23.86            0.00         23.86         0.00         0.00
    260.0       23.77            0.00         23.77         0.00         0.00
    255.0       23.68            0.00         23.68         0.00         0.00
    250.0       23.58            0.00         23.58         0.00         0.00
    245.0       23.49            0.00         23.49         0.00         0.00
    240.0       23.39            0.00         23.39         0.00         0.00
    235.0       23.29            0.00         23.29         0.00         0.00
    230.0       23.19            0.00         23.19         0.00         0.00
    225.0       23.09            0.00         23.09         0.00         0.00
    220.0       22.99            0.00         22.99         0.00         0.00
    215.0       22.88            0.00         22.88         0.00         0.00
    210.0       22.77            0.00         22.77         0.00         0.00
    205.0       22.66            0.00         22.66         0.00         0.00
    200.0       22.55            0.00         22.55         0.00         0.00
    195.0       22.44            0.00         22.44         0.00         0.00
    190.0       22.32            0.00         22.32         0.00         0.00
    185.0       22.20            0.00         22.20         0.00         0.00
    180.0       22.08            0.00         22.08         0.00         0.00
    175.0       21.96            0.00         21.96         0.00         0.00
    170.0       21.83            0.00         21.83         0.00         0.00
    165.0       21.70            0.00         21.70         0.00         0.00
    160.0       21.57            0.00         21.57         0.00         0.00
    155.0       21.43            0.00         21.43         0.00         0.00
    150.0       21.29            0.00         21.29         0.00         0.00
    145.0       21.15            0.00         21.15         0.00         0.00
    140.0       21.00            0.00         21.00         0.00         0.00
    135.0       20.85            0.00         20.85         0.00         0.00
    130.0       20.69            0.00         20.69         0.00         0.00
    125.0       20.53            0.00         20.53         0.00         0.00
    120.0       20.36            0.00         20.36         0.00         0.00
    115.0       20.19            0.00         20.19         0.00         0.00
    110.0       20.01            0.00         20.01         0.00         0.00
    105.0       19.83            0.00         19.83         0.00         0.00
    100.0       19.63            0.00         19.63         0.00         0.00
     95.0       19.43            0.00         19.43         0.00         0.00
     90.0       19.22            0.00         19.22         0.00         0.00
     85.0       19.01            0.00         19.01         0.00         0.00
     80.0       18.78            0.00         18.78         0.00         0.00
     75.0       18.54            0.00         18.54         0.00         0.00
     70.0       18.28            0.00         18.28         0.00         0.00
     65.0       18.01            0.00         18.01         0.00         0.00
     60.0       17.73            0.00         17.73         0.00         0.00
     55.0       17.42            0.00         17.42         0.00         0.00
     50.0       17.09            0.00         17.09         0.00         0.00
     45.0       16.74            0.00         16.74         0.00         0.00
     40.0       16.35            0.00         16.35         0.00         0.00
     35.0       15.92            0.00         15.92         0.00         0.00
     30.0       15.43            0.00         15.43         0.00         0.00
     25.0       14.88            0.00         14.88         0.00         0.00
     20.0       14.23            0.00         14.23         0.00         0.00
     15.0       13.43            0.00         13.43         0.00         0.00
     10.0       12.39            0.00         12.39         0.00         0.00


Harvested Random Seeds after Generation of the Random Numbers:

    508955588 K1
            0 K2


Hub-Height Simulated Turbulence Statistical Summary:

   Type of Wind        Min (m/s)   Mean (m/s)    Max (m/s)  Sigma (m/s)       TI (%)
   ----------------    ---------   ----------    ---------  -----------       ------
   Longitudinal (u)         8.68        21.00        32.10        3.657       17.414
   Lateral (v)            -10.14         0.00         9.56        2.892       13.770
   Vertical (w)            -7.11         0.00         6.60        1.788        8.515
   U component              8.68        21.00        32.10        3.657       17.414
   V component            -10.14         0.00         9.56        2.892       13.770
   W component             -7.11         0.00         6.60        1.788        8.515
   Horizontal (U&V)         9.44        21.20        33.29        3.621       17.077
   Total                    9.50        21.28        33.29        3.610       16.965

                       Min Reynolds     Mean Reynolds    Max Reynolds    Correlation
   Product             Stress (m/s)^2   Stress (m/s)^2   Stress (m/s)^2  Coefficient
   ----------------    --------------   --------------   --------------  -----------
   u'w'                    -41.591             0.263            42.125         0.040
   u'v'                    -59.565            -0.203           100.719        -0.019
   v'w'                    -34.848            -0.141            37.368        -0.027


   Friction Velocity (Ustar)  =      0.513 m/s
   Maximum Instantaneous TKE  =    102.459 (m/s)^2
   Maximum Instantaneous CTKE =     50.394 (m/s)^2


Grid Point Variance Summary:

   Y-coord -130.00 -125.00 -120.00 -115.00 -110.00 -105.00 -100.00  -95.00  -90.00  -85.00  -80.00  -75.00  -70.00  -65.00  -60.00  -55.00  -50.00  -45.00  -40.00  -35.00  -30.00  -25.00  -20.00  -15.00  -10.00   -5.00    0.00    5.00   10.00   15.00   20.00   25.00   30.00   35.00   40.00   45.00   50.00   55.00   60.00   65.00   70.00   75.00   80.00   85.00   90.00   95.00  100.00  105.00  110.00  115.00  120.00  125.00  130.00

   Height   Standard deviation at grid points for the u component:
   270.00    3.601   3.652   3.651   3.506   3.599   3.611   3.720   3.735   3.734   3.720   3.539   3.605   3.610   3.691   3.489   3.674   3.673   3.673   3.630   3.536   3.637   3.517   3.620   3.765   3.801   3.704   3.663   3.638   3.685   3.683   3.579   3.715   3.745   3.758   3.601   3.651   3.620   3.757   3.706   3.741   3.832   3.897   3.874   3.774   3.940   3.664   3.628   3.802   3.817   3.737   3.876   3.714   3.633
   265.00    3.623   3.707   3.811   3.680   3.574   3.741   3.770   3.589   3.504   3.810   3.709   3.827   3.671   3.651   3.504   3.451   3.408   3.628   3.819   3.573   3.646   3.595   3.607   3.724   3.845   3.877   3.681   3.694   3.697   3.634   3.621   3.495   3.645   3.726   3.766   3.614   3.610   3.626   3.823   3.663   3.762   3.859   3.774   3.778   3.746   3.669   3.917   3.695   3.638   3.649   3.818   3.621   3.600
   260.00    3.721   3.724   3.641   3.695   3.773   3.756   3.774   3.742   3.717   3.788   3.958   4.030   3.734   3.712   3.578   3.564   3.549   3.521   3.711   3.677   3.692   3.662   3.847   3.856   3.898   3.816   3.840   3.734   3.717   3.483   3.452   3.529   3.474   3.563   3.677   3.624   3.618   3.696   3.643   3.733   3.820   3.755   3.843   3.680   3.516   3.723   3.774   3.673   3.474   3.595   3.748   3.602   3.512
   255.00    3.591   3.577   3.648   3.524   3.656   3.719   3.822   3.723   3.751   3.751   3.777   3.869   3.893   3.679   3.688   3.708   3.619   3.548   3.701   3.653   3.605   3.672   3.740   3.845   3.737   3.859   3.775   3.876   3.811   3.565   3.537   3.399   3.550   3.620   3.663   3.631   3.653   3.603   3.613   3.824   3.976   3.852   3.684   3.619   3.624   3.631   3.668   3.623   3.683   3.638   3.725   3.704   3.556
   250.00    3.507   3.414   3.539   3.498   3.605   3.626   3.679   3.597   3.724   3.759   3.898   3.953   3.949   3.933   3.877   3.770   3.701   3.699   3.782   3.803   3.785   3.763   3.742   3.789   3.891   3.855   3.889   3.936   3.691   3.636   3.586   3.428   3.417   3.573   3.675   3.694   3.532   3.511   3.751   3.824   3.911   3.907   3.604   3.656   3.506   3.478   3.403   3.537   3.533   3.601   3.562   3.522   3.588
   245.00    3.494   3.486   3.505   3.432   3.474   3.494   3.532   3.632   3.777   3.834   3.862   3.754   3.914   3.954   3.948   4.039   4.038   3.860   3.998   4.069   3.903   3.861   3.759   3.883   3.962   3.919   3.895   3.950   3.535   3.609   3.603   3.514   3.581   3.572   3.683   3.440   3.455   3.481   3.653   3.673   3.695   3.748   3.587   3.670   3.488   3.439   3.362   3.461   3.580   3.654   3.496   3.384   3.464
   240.00    3.424   3.384   3.488   3.439   3.416   3.538   3.658   3.746   3.851   3.863   3.687   3.587   3.774   3.856   3.901   4.028   3.940   3.913   4.079   4.178   4.104   3.949   3.951   3.972   4.059   3.925   3.903   3.879   3.673   3.684   3.747   3.652   3.684   3.670   3.656   3.460   3.462   3.520   3.573   3.555   3.657   3.634   3.675   3.599   3.479   3.446   3.412   3.315   3.453   3.618   3.521   3.485   3.550
   235.00    3.324   3.273   3.310   3.472   3.688   3.561   3.703   3.854   3.860   3.690   3.635   3.472   3.646   3.746   3.817   3.963   3.871   3.982   4.040   4.377   4.258   4.074   4.026   3.984   4.049   3.875   3.854   3.847   3.731   3.611   3.685   3.720   3.672   3.664   3.499   3.565   3.569   3.511   3.526   3.596   3.588   3.546   3.609   3.678   3.583   3.508   3.387   3.303   3.527   3.590   3.528   3.619   3.644
   230.00    3.156   3.132   3.247   3.377   3.561   3.680   3.768   3.777   3.698   3.677   3.582   3.550   3.549   3.872   3.700   3.785   3.833   4.019   4.071   4.225   4.283   4.093   4.012   4.049   4.106   3.953   3.930   3.827   3.719   3.685   3.758   3.813   3.768   3.640   3.526   3.520   3.494   3.337   3.443   3.580   3.575   3.626   3.586   3.727   3.755   3.570   3.400   3.341   3.509   3.622   3.648   3.664   3.713
   225.00    3.055   3.024   3.226   3.247   3.450   3.607   3.572   3.738   3.575   3.515   3.476   3.603   3.858   3.746   3.646   3.682   3.672   3.797   3.871   3.977   4.158   4.122   4.027   4.077   4.105   4.033   3.936   3.801   3.749   3.712   3.682   3.792   3.651   3.493   3.539   3.527   3.584   3.398   3.348   3.418   3.521   3.572   3.591   3.703   3.756   3.700   3.485   3.390   3.488   3.514   3.474   3.610   3.495
   220.00    3.236   3.127   3.243   3.438   3.437   3.569   3.493   3.555   3.457   3.650   3.600   3.722   3.865   3.675   3.626   3.623   3.643   3.615   3.805   3.902   3.952   4.031   3.869   3.941   4.024   3.939   3.874   3.800   3.680   3.644   3.694   3.593   3.473   3.305   3.332   3.427   3.435   3.434   3.414   3.263   3.393   3.619   3.623   3.569   3.582   3.550   3.556   3.384   3.407   3.444   3.337   3.497   3.466
   215.00    3.563   3.290   3.270   3.384   3.538   3.490   3.582   3.463   3.434   3.574   3.799   3.757   3.706   3.652   3.670   3.886   3.842   3.731   3.704   3.763   3.882   3.755   3.883   3.985   3.964   3.924   3.853   3.763   3.707   3.644   3.547   3.440   3.378   3.325   3.338   3.462   3.280   3.283   3.341   3.219   3.337   3.447   3.629   3.426   3.532   3.630   3.585   3.484   3.476   3.577   3.569   3.383   3.464
   210.00    3.566   3.367   3.131   3.414   3.495   3.564   3.743   3.530   3.617   3.696   3.631   3.614   3.570   3.660   3.811   3.970   3.950   3.816   3.887   4.005   3.917   3.760   3.969   4.117   3.905   3.936   3.870   3.835   3.745   3.612   3.551   3.399   3.348   3.311   3.360   3.361   3.298   3.209   3.380   3.361   3.295   3.268   3.453   3.477   3.556   3.566   3.725   3.705   3.576   3.547   3.559   3.403   3.349
   205.00    3.360   3.348   3.298   3.410   3.603   3.807   3.834   3.736   3.633   3.752   3.706   3.719   3.720   3.609   3.688   3.888   3.971   3.987   4.036   4.141   3.967   3.902   3.955   3.937   3.864   3.796   3.734   3.863   3.684   3.496   3.393   3.420   3.421   3.409   3.430   3.371   3.291   3.347   3.412   3.380   3.143   3.165   3.334   3.439   3.552   3.573   3.440   3.593   3.638   3.493   3.461   3.285   3.411
   200.00    3.372   3.404   3.572   3.688   3.677   3.610   3.731   3.769   3.561   3.727   3.766   3.966   3.801   3.821   3.827   3.909   3.901   3.955   4.109   4.188   3.913   3.954   3.790   3.873   3.902   3.742   3.717   3.841   3.725   3.534   3.480   3.393   3.354   3.404   3.457   3.419   3.260   3.265   3.283   3.271   3.050   3.259   3.374   3.445   3.403   3.531   3.504   3.347   3.566   3.576   3.534   3.417   3.412
   195.00    3.451   3.495   3.490   3.688   3.512   3.484   3.543   3.693   3.563   3.690   3.713   3.842   3.794   3.798   3.702   3.787   3.815   4.021   4.059   4.206   4.120   4.010   3.983   3.924   3.827   3.725   3.779   3.708   3.694   3.672   3.617   3.464   3.233   3.276   3.247   3.258   3.227   3.210   3.233   3.172   3.234   3.207   3.303   3.395   3.351   3.315   3.361   3.281   3.503   3.539   3.429   3.393   3.363
   190.00    3.623   3.569   3.473   3.580   3.618   3.550   3.624   3.542   3.536   3.640   3.697   3.782   3.826   3.765   3.699   3.810   3.818   3.915   4.132   4.058   4.076   3.891   3.806   3.680   3.873   3.624   3.587   3.572   3.611   3.588   3.442   3.276   3.271   3.266   3.337   3.354   3.354   3.217   3.115   3.233   3.181   3.047   3.192   3.318   3.272   3.226   3.241   3.310   3.393   3.428   3.357   3.446   3.367
   185.00    3.681   3.676   3.670   3.636   3.726   3.612   3.680   3.635   3.770   3.613   3.740   3.814   3.867   3.951   4.093   3.984   3.919   3.930   3.853   3.840   3.948   4.003   3.751   3.711   3.763   3.762   3.664   3.572   3.568   3.575   3.434   3.407   3.481   3.446   3.426   3.299   3.241   3.280   3.198   3.331   3.337   3.163   3.272   3.360   3.297   3.253   3.329   3.325   3.389   3.236   3.228   3.304   3.354
   180.00    3.700   3.726   3.725   3.671   3.745   3.587   3.847   3.796   3.908   3.804   3.868   3.873   3.850   3.927   3.990   4.046   3.841   3.803   3.813   3.709   3.835   3.772   3.762   3.780   3.708   3.792   3.705   3.634   3.536   3.563   3.553   3.519   3.645   3.418   3.512   3.343   3.382   3.400   3.238   3.242   3.421   3.411   3.328   3.261   3.456   3.414   3.357   3.413   3.411   3.234   3.209   3.289   3.138
   175.00    3.845   3.730   3.851   3.748   3.760   3.795   3.892   3.854   3.860   3.966   4.018   3.982   3.964   4.002   4.070   4.075   3.946   3.924   3.642   3.708   3.693   3.895   3.786   3.816   3.754   3.737   3.692   3.745   3.723   3.637   3.506   3.555   3.743   3.604   3.516   3.420   3.377   3.288   3.286   3.289   3.321   3.347   3.587   3.607   3.518   3.664   3.432   3.374   3.332   3.147   3.200   3.214   3.208
   170.00    3.818   3.675   3.695   3.677   3.724   3.871   3.805   3.883   4.090   3.970   3.893   3.920   4.112   4.084   4.020   4.082   3.999   3.951   3.794   3.755   3.813   3.896   3.858   3.770   3.705   3.733   3.707   3.785   3.832   3.576   3.547   3.779   3.750   3.601   3.488   3.450   3.401   3.358   3.410   3.410   3.279   3.465   3.526   3.518   3.697   3.619   3.505   3.498   3.291   3.317   3.302   3.278   3.242
   165.00    3.771   3.670   3.771   3.690   3.710   3.778   3.781   3.874   3.915   3.972   3.944   4.008   3.978   4.007   3.986   4.063   4.013   3.981   3.965   3.835   3.918   3.868   3.855   3.749   3.784   3.985   3.892   3.821   3.699   3.593   3.617   3.801   3.660   3.662   3.507   3.441   3.389   3.555   3.507   3.446   3.364   3.444   3.471   3.579   3.642   3.514   3.380   3.397   3.366   3.411   3.202   3.119   3.053
   160.00    3.917   3.714   3.878   3.736   3.866   3.855   3.876   3.915   3.924   3.837   3.682   3.885   3.981   3.968   3.983   3.906   3.840   4.013   3.825   3.751   3.750   3.712   3.744   3.772   3.811   3.794   3.754   3.795   3.610   3.614   3.663   3.599   3.464   3.476   3.474   3.395   3.490   3.452   3.430   3.475   3.478   3.422   3.466   3.494   3.498   3.358   3.151   3.067   3.211   3.242   3.230   3.170   3.185
   155.00    4.062   4.057   3.966   3.830   3.894   3.956   3.979   3.938   3.842   3.836   3.780   3.800   3.776   3.724   3.750   3.783   3.843   3.901   3.910   3.760   3.704   3.747   3.743   3.683   3.764   3.704   3.784   3.737   3.760   3.676   3.641   3.507   3.359   3.359   3.300   3.283   3.372   3.315   3.326   3.521   3.375   3.386   3.520   3.393   3.385   3.315   3.169   3.189   3.215   3.170   3.132   3.283   3.275
   150.00    4.124   4.165   3.907   3.891   3.863   3.942   3.797   3.838   3.741   3.800   3.715   3.635   3.619   3.634   3.764   3.869   3.920   3.964   3.856   3.630   3.704   3.878   3.708   3.421   3.472   3.723   3.740   3.787   3.786   3.755   3.614   3.555   3.521   3.518   3.303   3.321   3.372   3.338   3.374   3.397   3.443   3.341   3.402   3.490   3.438   3.376   3.384   3.308   3.218   3.212   3.197   3.223   3.304
   145.00    4.154   3.933   3.823   3.890   3.764   3.721   3.771   3.765   3.729   3.796   3.754   3.637   3.669   3.517   3.794   3.783   3.832   3.823   3.714   3.603   3.691   3.576   3.558   3.439   3.516   3.613   3.577   3.679   3.627   3.651   3.604   3.620   3.426   3.486   3.406   3.335   3.384   3.205   3.389   3.419   3.380   3.302   3.203   3.312   3.372   3.388   3.451   3.262   3.274   3.249   3.271   3.275   3.425
   140.00    3.976   3.855   3.779   3.787   3.695   3.651   3.651   3.585   3.748   3.873   3.784   3.742   3.526   3.506   3.714   3.719   3.800   3.835   3.776   3.681   3.708   3.518   3.417   3.489   3.485   3.597   3.657   3.549   3.570   3.658   3.579   3.621   3.423   3.357   3.518   3.343   3.254   3.319   3.459   3.509   3.559   3.391   3.265   3.349   3.432   3.474   3.420   3.175   3.299   3.335   3.260   3.204   3.279
   135.00    3.860   3.907   3.783   3.779   3.551   3.482   3.424   3.653   3.582   3.723   3.716   3.707   3.626   3.716   3.754   3.858   3.946   3.894   3.853   3.668   3.582   3.562   3.618   3.575   3.491   3.494   3.646   3.517   3.495   3.624   3.442   3.541   3.462   3.413   3.255   3.414   3.349   3.378   3.280   3.430   3.490   3.472   3.379   3.439   3.359   3.336   3.339   3.217   3.233   3.394   3.257   3.137   3.231
   130.00    3.753   3.808   3.854   3.732   3.630   3.479   3.608   3.635   3.633   3.624   3.717   3.587   3.588   3.897   3.863   3.939   4.037   3.984   3.856   3.773   3.686   3.657   3.624   3.560   3.488   3.376   3.625   3.492   3.574   3.520   3.469   3.397   3.383   3.238   3.300   3.397   3.289   3.401   3.395   3.402   3.452   3.553   3.373   3.208   3.281   3.328   3.314   3.294   3.246   3.449   3.386   3.464   3.447
   125.00    3.843   3.788   3.785   3.959   3.885   3.791   3.593   3.715   3.595   3.529   3.611   3.616   3.725   3.766   3.924   3.809   4.008   3.938   3.870   3.675   3.704   3.738   3.806   3.678   3.470   3.273   3.386   3.477   3.440   3.438   3.518   3.490   3.354   3.340   3.232   3.329   3.497   3.436   3.416   3.492   3.449   3.567   3.354   3.277   3.243   3.337   3.449   3.316   3.402   3.525   3.318   3.515   3.455
   120.00    3.772   3.831   3.812   3.685   3.907   3.800   3.720   3.719   3.569   3.448   3.676   3.804   3.799   3.809   3.931   3.955   3.887   3.824   3.771   3.696   3.703   3.713   3.782   3.685   3.533   3.362   3.386   3.515   3.493   3.432   3.492   3.611   3.445   3.282   3.215   3.210   3.326   3.448   3.442   3.535   3.646   3.555   3.388   3.381   3.511   3.501   3.564   3.536   3.460   3.530   3.710   3.554   3.358
   115.00    3.801   3.680   3.655   3.741   3.860   3.739   3.595   3.609   3.586   3.648   3.844   3.899   3.845   3.946   3.907   3.920   3.751   3.732   3.625   3.638   3.776   3.597   3.540   3.633   3.618   3.569   3.551   3.652   3.624   3.674   3.725   3.627   3.554   3.476   3.321   3.171   3.224   3.476   3.404   3.433   3.579   3.559   3.424   3.404   3.353   3.440   3.476   3.431   3.522   3.413   3.605   3.586   3.473
   110.00    3.766   3.586   3.667   3.693   3.820   3.771   3.761   3.475   3.596   3.773   3.826   3.792   3.839   3.854   3.906   3.772   3.755   3.703   3.675   3.647   3.614   3.674   3.507   3.606   3.598   3.536   3.516   3.597   3.705   3.803   3.789   3.829   3.678   3.461   3.302   3.217   3.382   3.397   3.367   3.455   3.462   3.435   3.379   3.473   3.368   3.400   3.374   3.428   3.560   3.497   3.574   3.781   3.650
   105.00    3.814   3.587   3.506   3.550   3.681   3.762   3.674   3.634   3.557   3.875   3.856   3.624   3.659   3.767   3.839   3.744   3.683   3.725   3.725   3.541   3.445   3.557   3.573   3.612   3.536   3.575   3.558   3.592   3.750   3.786   3.861   3.733   3.590   3.446   3.222   3.336   3.339   3.311   3.343   3.492   3.445   3.397   3.390   3.414   3.363   3.368   3.356   3.342   3.520   3.575   3.501   3.596   3.560
   100.00    3.853   3.742   3.557   3.508   3.728   3.662   3.740   3.611   3.560   3.727   3.910   3.764   3.632   3.789   3.791   3.782   3.642   3.633   3.703   3.580   3.462   3.469   3.447   3.608   3.461   3.478   3.524   3.612   3.601   3.706   3.713   3.718   3.581   3.454   3.336   3.279   3.139   3.346   3.385   3.633   3.500   3.440   3.539   3.316   3.296   3.384   3.279   3.386   3.547   3.686   3.696   3.612   3.548
    95.00    3.751   3.655   3.608   3.769   3.696   3.582   3.638   3.642   3.573   3.651   3.667   3.666   3.745   3.748   3.805   3.691   3.670   3.577   3.468   3.606   3.437   3.569   3.487   3.642   3.687   3.547   3.525   3.371   3.492   3.576   3.665   3.548   3.526   3.471   3.401   3.499   3.308   3.390   3.411   3.475   3.375   3.370   3.334   3.434   3.452   3.340   3.434   3.469   3.671   3.656   3.695   3.608   3.616
    90.00    3.572   3.609   3.650   3.917   3.864   3.677   3.609   3.817   3.706   3.499   3.550   3.544   3.719   3.598   3.701   3.705   3.652   3.580   3.521   3.436   3.491   3.577   3.600   3.788   3.620   3.572   3.610   3.531   3.492   3.464   3.560   3.561   3.702   3.588   3.429   3.418   3.236   3.337   3.454   3.503   3.338   3.406   3.414   3.607   3.564   3.488   3.442   3.566   3.728   3.980   3.829   3.629   3.776
    85.00    3.676   3.614   3.783   3.967   3.972   3.907   3.872   3.807   3.795   3.743   3.696   3.697   3.597   3.743   3.836   3.890   3.704   3.653   3.414   3.352   3.344   3.264   3.571   3.615   3.520   3.619   3.542   3.621   3.407   3.413   3.335   3.497   3.686   3.639   3.679   3.568   3.565   3.357   3.462   3.293   3.229   3.406   3.507   3.612   3.649   3.574   3.611   3.661   3.785   3.892   3.939   3.749   3.756
    80.00    3.837   3.709   3.616   3.709   3.782   3.867   3.839   3.735   3.845   3.851   3.731   3.778   3.621   3.797   3.983   3.883   3.627   3.542   3.450   3.395   3.371   3.204   3.447   3.513   3.369   3.505   3.418   3.326   3.453   3.411   3.445   3.409   3.640   3.719   3.602   3.607   3.564   3.486   3.479   3.436   3.431   3.624   3.660   3.687   3.720   3.777   3.875   4.009   3.784   3.737   3.932   3.807   3.727
    75.00    3.767   3.674   3.590   3.682   3.875   3.777   3.824   3.796   3.812   4.022   3.698   3.903   3.780   3.812   3.938   3.809   3.594   3.536   3.564   3.561   3.341   3.402   3.435   3.374   3.278   3.301   3.330   3.366   3.516   3.429   3.364   3.438   3.525   3.591   3.720   3.658   3.559   3.575   3.476   3.583   3.563   3.811   3.808   3.734   3.847   3.781   3.907   4.021   3.832   3.784   3.817   3.935   4.005
    70.00    3.596   3.483   3.386   3.500   3.707   3.771   3.789   3.781   3.822   3.846   3.857   3.864   3.746   3.769   3.763   3.573   3.615   3.513   3.632   3.569   3.432   3.372   3.350   3.289   3.297   3.174   3.229   3.351   3.440   3.574   3.479   3.445   3.398   3.623   3.687   3.789   3.729   3.598   3.604   3.563   3.732   3.960   3.959   3.742   3.813   3.928   3.813   3.981   4.056   3.945   3.803   3.779   3.883
    65.00    3.716   3.590   3.577   3.468   3.581   3.745   3.742   3.750   3.850   3.896   3.834   3.796   3.707   3.633   3.666   3.544   3.718   3.639   3.573   3.498   3.512   3.462   3.467   3.361   3.349   3.272   3.239   3.339   3.533   3.428   3.526   3.298   3.318   3.487   3.561   3.584   3.563   3.680   3.731   3.734   3.745   3.980   4.036   3.908   3.762   3.878   3.901   4.025   4.048   4.028   4.005   3.870   3.816
    60.00    3.626   3.646   3.549   3.474   3.702   3.716   3.734   3.583   3.778   3.866   3.688   3.711   3.747   3.689   3.659   3.693   3.804   3.691   3.618   3.575   3.565   3.557   3.503   3.295   3.227   3.244   3.207   3.331   3.387   3.476   3.486   3.361   3.332   3.521   3.521   3.487   3.645   3.688   3.664   3.598   3.762   3.842   3.897   3.935   3.730   3.787   3.952   3.992   3.948   4.022   4.077   3.896   4.048
    55.00    3.810   3.617   3.401   3.354   3.561   3.679   3.675   3.563   3.557   3.635   3.610   3.843   3.664   3.676   3.614   3.651   3.856   3.878   3.805   3.622   3.576   3.578   3.517   3.276   3.191   3.278   3.160   3.323   3.286   3.216   3.197   3.238   3.369   3.383   3.457   3.501   3.548   3.484   3.780   3.741   3.836   3.874   3.701   3.695   3.740   3.786   3.973   3.938   3.917   3.935   4.017   4.004   4.028
    50.00    3.675   3.736   3.442   3.387   3.456   3.653   3.584   3.442   3.399   3.318   3.517   3.665   3.589   3.682   3.736   3.687   3.814   3.955   3.701   3.745   3.602   3.533   3.542   3.412   3.230   3.225   3.249   3.348   3.265   3.243   3.355   3.262   3.254   3.468   3.385   3.462   3.687   3.676   3.713   3.702   3.635   3.754   3.724   3.622   3.626   3.872   3.975   3.926   4.105   3.966   3.968   3.914   4.005
    45.00    3.714   3.618   3.440   3.415   3.329   3.467   3.485   3.484   3.339   3.277   3.374   3.544   3.676   3.727   3.666   3.799   3.719   3.881   3.785   3.667   3.660   3.512   3.487   3.437   3.335   3.304   3.257   3.152   3.171   3.221   3.266   3.358   3.293   3.382   3.372   3.528   3.745   3.718   3.617   3.650   3.592   3.619   3.773   3.709   3.596   3.695   3.889   3.851   4.029   3.943   4.008   4.073   3.873
    40.00    3.646   3.490   3.465   3.240   3.161   3.271   3.343   3.548   3.518   3.326   3.636   3.742   3.697   3.762   3.752   3.789   3.824   3.874   3.792   3.725   3.622   3.394   3.472   3.499   3.465   3.403   3.297   3.205   3.295   3.214   3.153   3.316   3.394   3.380   3.321   3.409   3.544   3.523   3.575   3.575   3.434   3.672   3.731   3.776   3.575   3.686   3.737   3.751   4.000   3.960   3.989   3.950   3.948
    35.00    3.745   3.463   3.449   3.293   3.187   3.175   3.409   3.522   3.452   3.318   3.595   3.742   3.823   3.863   3.845   3.679   3.856   3.914   3.788   3.648   3.474   3.336   3.473   3.480   3.641   3.561   3.509   3.352   3.329   3.311   3.327   3.237   3.320   3.369   3.318   3.310   3.499   3.426   3.637   3.563   3.558   3.638   3.645   3.772   3.833   3.744   3.723   3.731   3.894   3.950   3.960   3.964   4.005
    30.00    3.776   3.495   3.363   3.278   3.175   3.304   3.373   3.502   3.407   3.532   3.548   3.757   3.826   3.851   3.898   3.804   3.735   3.819   3.706   3.685   3.649   3.556   3.491   3.583   3.558   3.558   3.486   3.455   3.509   3.336   3.384   3.239   3.323   3.313   3.346   3.357   3.373   3.384   3.579   3.500   3.697   3.626   3.613   3.796   3.676   3.625   3.578   3.825   3.940   4.053   3.863   3.929   3.883
    25.00    3.601   3.462   3.409   3.375   3.335   3.472   3.515   3.612   3.369   3.479   3.698   3.749   3.882   3.908   3.673   3.700   3.884   3.803   3.761   3.605   3.539   3.472   3.591   3.469   3.588   3.615   3.580   3.449   3.325   3.405   3.373   3.349   3.209   3.184   3.237   3.327   3.451   3.499   3.496   3.424   3.554   3.595   3.665   3.824   3.692   3.653   3.531   3.727   3.962   3.858   3.966   3.968   3.985
    20.00    3.496   3.500   3.351   3.291   3.434   3.378   3.505   3.549   3.532   3.573   3.752   3.717   3.827   3.766   3.769   3.765   3.857   3.647   3.753   3.586   3.497   3.595   3.582   3.515   3.602   3.535   3.536   3.403   3.331   3.284   3.172   3.123   3.138   3.186   3.291   3.295   3.364   3.504   3.502   3.405   3.464   3.582   3.622   3.779   3.656   3.704   3.634   3.688   3.699   3.848   3.827   3.891   3.912
    15.00    3.574   3.611   3.545   3.405   3.412   3.473   3.568   3.597   3.648   3.666   3.647   3.678   3.612   3.809   3.685   3.683   3.601   3.677   3.718   3.694   3.590   3.566   3.483   3.471   3.546   3.523   3.599   3.524   3.317   3.418   3.191   3.272   3.200   3.160   3.155   3.226   3.298   3.537   3.524   3.514   3.599   3.481   3.439   3.497   3.662   3.607   3.533   3.519   3.556   3.667   3.794   3.890   3.779
    10.00    3.576   3.653   3.619   3.564   3.423   3.365   3.504   3.573   3.617   3.628   3.593   3.518   3.606   3.636   3.654   3.655   3.599   3.702   3.640   3.571   3.596   3.498   3.595   3.678   3.655   3.597   3.604   3.526   3.376   3.450   3.281   3.386   3.279   3.272   3.314   3.217   3.422   3.491   3.681   3.548   3.576   3.369   3.347   3.311   3.544   3.513   3.520   3.418   3.529   3.434   3.638   3.870   3.927

   Height   Standard deviation at grid points for the v component:
   270.00    2.892   2.892   2.892   2.892   2.892   2.892   2.892   2.892   2.892   2.892   2.892   2.892   2.892   2.892   2.892   2.892   2.892   2.892   2.892   2.892   2.892   2.892   2.892   2.892   2.892   2.892   2.892   2.892   2.892   2.892   2.892   2.892   2.892   2.892   2.892   2.892   2.892   2.892   2.892   2.892   2.892   2.892   2.892   2.892   2.892   2.892   2.892   2.892   2.892   2.892   2.892   2.892   2.892
   265.00    2.892   2.892   2.892   2.892   2.892   2.892   2.892   2.892   2.892   2.892   2.892   2.892   2.892   2.892   2.892   2.892   2.892   2.892   2.892   2.892   2.892   2.892   2.892   2.892   2.892   2.892   2.892   2.892   2.892   2.892   2.892   2.892   2.892   2.892   2.892   2.892   2.892   2.892   2.892   2.892   2.892   2.892   2.892   2.892   2.892   2.892   2.892   2.892   2.892   2.892   2.892   2.892   2.892
   260.00    2.892   2.892   2.892   2.892   2.892   2.892   2.892   2.892   2.892   2.892   2.892   2.892   2.892   2.892   2.892   2.892   2.892   2.892   2.892   2.892   2.892   2.892   2.892   2.892   2.892   2.892   2.892   2.892   2.892   2.892   2.892   2.892   2.892   2.892   2.892   2.892   2.892   2.892   2.892   2.892   2.892   2.892   2.892   2.892   2.892   2.892   2.892   2.892   2.892   2.892   2.892   2.892   2.892
   255.00    2.892   2.892   2.892   2.892   2.892   2.892   2.892   2.892   2.892   2.892   2.892   2.892   2.892   2.892   2.892   2.892   2.892   2.892   2.892   2.892   2.892   2.892   2.892   2.892   2.892   2.892   2.892   2.892   2.892   2.892   2.892   2.892   2.892   2.892   2.892   2.892   2.892   2.892   2.892   2.892   2.892   2.892   2.892   2.892   2.892   2.892   2.892   2.892   2.892   2.892   2.892   2.892   2.892
   250.00    2.892   2.892   2.892   2.892   2.892   2.892   2.892   2.892   2.892   2.892   2.892   2.892   2.892   2.892   2.892   2.892   2.892   2.892   2.892   2.892   2.892   2.892   2.892   2.892   2.892   2.892   2.892   2.892   2.892   2.892   2.892   2.892   2.892   2.892   2.892   2.892   2.892   2.892   2.892   2.892   2.892   2.892   2.892   2.892   2.892   2.892   2.892   2.892   2.892   2.892   2.892   2.892   2.892
   245.00    2.892   2.892   2.892   2.892   2.892   2.892   2.892   2.892   2.892   2.892   2.892   2.892   2.892   2.892   2.892   2.892   2.892   2.892   2.892   2.892   2.892   2.892   2.892   2.892   2.892   2.892   2.892   2.892   2.892   2.892   2.892   2.892   2.892   2.892   2.892   2.892   2.892   2.892   2.892   2.892   2.892   2.892   2.892   2.892   2.892   2.892   2.892   2.892   2.892   2.892   2.892   2.892   2.892
   240.00    2.892   2.892   2.892   2.892   2.892   2.892   2.892   2.892   2.892   2.892   2.892   2.892   2.892   2.892   2.892   2.892   2.892   2.892   2.892   2.892   2.892   2.892   2.892   2.892   2.892   2.892   2.892   2.892   2.892   2.892   2.892   2.892   2.892   2.892   2.892   2.892   2.892   2.892   2.892   2.892   2.892   2.892   2.892   2.892   2.892   2.892   2.892   2.892   2.892   2.892   2.892   2.892   2.892
   235.00    2.892   2.892   2.892   2.892   2.892   2.892   2.892   2.892   2.892   2.892   2.892   2.892   2.892   2.892   2.892   2.892   2.892   2.892   2.892   2.892   2.892   2.892   2.892   2.892   2.892   2.892   2.892   2.892   2.892   2.892   2.892   2.892   2.892   2.892   2.892   2.892   2.892   2.892   2.892   2.892   2.892   2.892   2.892   2.892   2.892   2.892   2.892   2.892   2.892   2.892   2.892   2.892   2.892
   230.00    2.892   2.892   2.892   2.892   2.892   2.892   2.892   2.892   2.892   2.892   2.892   2.892   2.892   2.892   2.892   2.892   2.892   2.892   2.892   2.892   2.892   2.892   2.892   2.892   2.892   2.892   2.892   2.892   2.892   2.892   2.892   2.892   2.892   2.892   2.892   2.892   2.892   2.892   2.892   2.892   2.892   2.892   2.892   2.892   2.892   2.892   2.892   2.892   2.892   2.892   2.892   2.892   2.892
   225.00    2.892   2.892   2.892   2.892   2.892   2.892   2.892   2.892   2.892   2.892   2.892   2.892   2.892   2.892   2.892   2.892   2.892   2.892   2.892   2.892   2.892   2.892   2.892   2.892   2.892   2.892   2.892   2.892   2.892   2.892   2.892   2.892   2.892   2.892   2.892   2.892   2.892   2.892   2.892   2.892   2.892   2.892   2.892   2.892   2.892   2.892   2.892   2.892   2.892   2.892   2.892   2.892   2.892
   220.00    2.892   2.892   2.892   2.892   2.892   2.892   2.892   2.892   2.892   2.892   2.892   2.892   2.892   2.892   2.892   2.892   2.892   2.892   2.892   2.892   2.892   2.892   2.892   2.892   2.892   2.892   2.892   2.892   2.892   2.892   2.892   2.892   2.892   2.892   2.892   2.892   2.892   2.892   2.892   2.892   2.892   2.892   2.892   2.892   2.892   2.892   2.892   2.892   2.892   2.892   2.892   2.892   2.892
   215.00    2.892   2.892   2.892   2.892   2.892   2.892   2.892   2.892   2.892   2.892   2.892   2.892   2.892   2.892   2.892   2.892   2.892   2.892   2.892   2.892   2.892   2.892   2.892   2.892   2.892   2.892   2.892   2.892   2.892   2.892   2.892   2.892   2.892   2.892   2.892   2.892   2.892   2.892   2.892   2.892   2.892   2.892   2.892   2.892   2.892   2.892   2.892   2.892   2.892   2.892   2.892   2.892   2.892
   210.00    2.892   2.892   2.892   2.892   2.892   2.892   2.892   2.892   2.892   2.892   2.892   2.892   2.892   2.892   2.892   2.892   2.892   2.892   2.892   2.892   2.892   2.892   2.892   2.892   2.892   2.892   2.892   2.892   2.892   2.892   2.892   2.892   2.892   2.892   2.892   2.892   2.892   2.892   2.892   2.892   2.892   2.892   2.892   2.892   2.892   2.892   2.892   2.892   2.892   2.892   2.892   2.892   2.892
   205.00    2.892   2.892   2.892   2.892   2.892   2.892   2.892   2.892   2.892   2.892   2.892   2.892   2.892   2.892   2.892   2.892   2.892   2.892   2.892   2.892   2.892   2.892   2.892   2.892   2.892   2.892   2.892   2.892   2.892   2.892   2.892   2.892   2.892   2.892   2.892   2.892   2.892   2.892   2.892   2.892   2.892   2.892   2.892   2.892   2.892   2.892   2.892   2.892   2.892   2.892   2.892   2.892   2.892
   200.00    2.892   2.892   2.892   2.892   2.892   2.892   2.892   2.892   2.892   2.892   2.892   2.892   2.892   2.892   2.892   2.892   2.892   2.892   2.892   2.892   2.892   2.892   2.892   2.892   2.892   2.892   2.892   2.892   2.892   2.892   2.892   2.892   2.892   2.892   2.892   2.892   2.892   2.892   2.892   2.892   2.892   2.892   2.892   2.892   2.892   2.892   2.892   2.892   2.892   2.892   2.892   2.892   2.892
   195.00    2.892   2.892   2.892   2.892   2.892   2.892   2.892   2.892   2.892   2.892   2.892   2.892   2.892   2.892   2.892   2.892   2.892   2.892   2.892   2.892   2.892   2.892   2.892   2.892   2.892   2.892   2.892   2.892   2.892   2.892   2.892   2.892   2.892   2.892   2.892   2.892   2.892   2.892   2.892   2.892   2.892   2.892   2.892   2.892   2.892   2.892   2.892   2.892   2.892   2.892   2.892   2.892   2.892
   190.00    2.892   2.892   2.892   2.892   2.892   2.892   2.892   2.892   2.892   2.892   2.892   2.892   2.892   2.892   2.892   2.892   2.892   2.892   2.892   2.892   2.892   2.892   2.892   2.892   2.892   2.892   2.892   2.892   2.892   2.892   2.892   2.892   2.892   2.892   2.892   2.892   2.892   2.892   2.892   2.892   2.892   2.892   2.892   2.892   2.892   2.892   2.892   2.892   2.892   2.892   2.892   2.892   2.892
   185.00    2.892   2.892   2.892   2.892   2.892   2.892   2.892   2.892   2.892   2.892   2.892   2.892   2.892   2.892   2.892   2.892   2.892   2.892   2.892   2.892   2.892   2.892   2.892   2.892   2.892   2.892   2.892   2.892   2.892   2.892   2.892   2.892   2.892   2.892   2.892   2.892   2.892   2.892   2.892   2.892   2.892   2.892   2.892   2.892   2.892   2.892   2.892   2.892   2.892   2.892   2.892   2.892   2.892
   180.00    2.892   2.892   2.892   2.892   2.892   2.892   2.892   2.892   2.892   2.892   2.892   2.892   2.892   2.892   2.892   2.892   2.892   2.892   2.892   2.892   2.892   2.892   2.892   2.892   2.892   2.892   2.892   2.892   2.892   2.892   2.892   2.892   2.892   2.892   2.892   2.892   2.892   2.892   2.892   2.892   2.892   2.892   2.892   2.892   2.892   2.892   2.892   2.892   2.892   2.892   2.892   2.892   2.892
   175.00    2.892   2.892   2.892   2.892   2.892   2.892   2.892   2.892   2.892   2.892   2.892   2.892   2.892   2.892   2.892   2.892   2.892   2.892   2.892   2.892   2.892   2.892   2.892   2.892   2.892   2.892   2.892   2.892   2.892   2.892   2.892   2.892   2.892   2.892   2.892   2.892   2.892   2.892   2.892   2.892   2.892   2.892   2.892   2.892   2.892   2.892   2.892   2.892   2.892   2.892   2.892   2.892   2.892
   170.00    2.892   2.892   2.892   2.892   2.892   2.892   2.892   2.892   2.892   2.892   2.892   2.892   2.892   2.892   2.892   2.892   2.892   2.892   2.892   2.892   2.892   2.892   2.892   2.892   2.892   2.892   2.892   2.892   2.892   2.892   2.892   2.892   2.892   2.892   2.892   2.892   2.892   2.892   2.892   2.892   2.892   2.892   2.892   2.892   2.892   2.892   2.892   2.892   2.892   2.892   2.892   2.892   2.892
   165.00    2.892   2.892   2.892   2.892   2.892   2.892   2.892   2.892   2.892   2.892   2.892   2.892   2.892   2.892   2.892   2.892   2.892   2.892   2.892   2.892   2.892   2.892   2.892   2.892   2.892   2.892   2.892   2.892   2.892   2.892   2.892   2.892   2.892   2.892   2.892   2.892   2.892   2.892   2.892   2.892   2.892   2.892   2.892   2.892   2.892   2.892   2.892   2.892   2.892   2.892   2.892   2.892   2.892
   160.00    2.892   2.892   2.892   2.892   2.892   2.892   2.892   2.892   2.892   2.892   2.892   2.892   2.892   2.892   2.892   2.892   2.892   2.892   2.892   2.892   2.892   2.892   2.892   2.892   2.892   2.892   2.892   2.892   2.892   2.892   2.892   2.892   2.892   2.892   2.892   2.892   2.892   2.892   2.892   2.892   2.892   2.892   2.892   2.892   2.892   2.892   2.892   2.892   2.892   2.892   2.892   2.892   2.892
   155.00    2.892   2.892   2.892   2.892   2.892   2.892   2.892   2.892   2.892   2.892   2.892   2.892   2.892   2.892   2.892   2.892   2.892   2.892   2.892   2.892   2.892   2.892   2.892   2.892   2.892   2.892   2.892   2.892   2.892   2.892   2.892   2.892   2.892   2.892   2.892   2.892   2.892   2.892   2.892   2.892   2.892   2.892   2.892   2.892   2.892   2.892   2.892   2.892   2.892   2.892   2.892   2.892   2.892
   150.00    2.892   2.892   2.892   2.892   2.892   2.892   2.892   2.892   2.892   2.892   2.892   2.892   2.892   2.892   2.892   2.892   2.892   2.892   2.892   2.892   2.892   2.892   2.892   2.892   2.892   2.892   2.892   2.892   2.892   2.892   2.892   2.892   2.892   2.892   2.892   2.892   2.892   2.892   2.892   2.892   2.892   2.892   2.892   2.892   2.892   2.892   2.892   2.892   2.892   2.892   2.892   2.892   2.892
   145.00    2.892   2.892   2.892   2.892   2.892   2.892   2.892   2.892   2.892   2.892   2.892   2.892   2.892   2.892   2.892   2.892   2.892   2.892   2.892   2.892   2.892   2.892   2.892   2.892   2.892   2.892   2.892   2.892   2.892   2.892   2.892   2.892   2.892   2.892   2.892   2.892   2.892   2.892   2.892   2.892   2.892   2.892   2.892   2.892   2.892   2.892   2.892   2.892   2.892   2.892   2.892   2.892   2.892
   140.00    2.892   2.892   2.892   2.892   2.892   2.892   2.892   2.892   2.892   2.892   2.892   2.892   2.892   2.892   2.892   2.892   2.892   2.892   2.892   2.892   2.892   2.892   2.892   2.892   2.892   2.892   2.892   2.892   2.892   2.892   2.892   2.892   2.892   2.892   2.892   2.892   2.892   2.892   2.892   2.892   2.892   2.892   2.892   2.892   2.892   2.892   2.892   2.892   2.892   2.892   2.892   2.892   2.892
   135.00    2.892   2.892   2.892   2.892   2.892   2.892   2.892   2.892   2.892   2.892   2.892   2.892   2.892   2.892   2.892   2.892   2.892   2.892   2.892   2.892   2.892   2.892   2.892   2.892   2.892   2.892   2.892   2.892   2.892   2.892   2.892   2.892   2.892   2.892   2.892   2.892   2.892   2.892   2.892   2.892   2.892   2.892   2.892   2.892   2.892   2.892   2.892   2.892   2.892   2.892   2.892   2.892   2.892
   130.00    2.892   2.892   2.892   2.892   2.892   2.892   2.892   2.892   2.892   2.892   2.892   2.892   2.892   2.892   2.892   2.892   2.892   2.892   2.892   2.892   2.892   2.892   2.892   2.892   2.892   2.892   2.892   2.892   2.892   2.892   2.892   2.892   2.892   2.892   2.892   2.892   2.892   2.892   2.892   2.892   2.892   2.892   2.892   2.892   2.892   2.892   2.892   2.892   2.892   2.892   2.892   2.892   2.892
   125.00    2.892   2.892   2.892   2.892   2.892   2.892   2.892   2.892   2.892   2.892   2.892   2.892   2.892   2.892   2.892   2.892   2.892   2.892   2.892   2.892   2.892   2.892   2.892   2.892   2.892   2.892   2.892   2.892   2.892   2.892   2.892   2.892   2.892   2.892   2.892   2.892   2.892   2.892   2.892   2.892   2.892   2.892   2.892   2.892   2.892   2.892   2.892   2.892   2.892   2.892   2.892   2.892   2.892
   120.00    2.892   2.892   2.892   2.892   2.892   2.892   2.892   2.892   2.892   2.892   2.892   2.892   2.892   2.892   2.892   2.892   2.892   2.892   2.892   2.892   2.892   2.892   2.892   2.892   2.892   2.892   2.892   2.892   2.892   2.892   2.892   2.892   2.892   2.892   2.892   2.892   2.892   2.892   2.892   2.892   2.892   2.892   2.892   2.892   2.892   2.892   2.892   2.892   2.892   2.892   2.892   2.892   2.892
   115.00    2.892   2.892   2.892   2.892   2.892   2.892   2.892   2.892   2.892   2.892   2.892   2.892   2.892   2.892   2.892   2.892   2.892   2.892   2.892   2.892   2.892   2.892   2.892   2.892   2.892   2.892   2.892   2.892   2.892   2.892   2.892   2.892   2.892   2.892   2.892   2.892   2.892   2.892   2.892   2.892   2.892   2.892   2.892   2.892   2.892   2.892   2.892   2.892   2.892   2.892   2.892   2.892   2.892
   110.00    2.892   2.892   2.892   2.892   2.892   2.892   2.892   2.892   2.892   2.892   2.892   2.892   2.892   2.892   2.892   2.892   2.892   2.892   2.892   2.892   2.892   2.892   2.892   2.892   2.892   2.892   2.892   2.892   2.892   2.892   2.892   2.892   2.892   2.892   2.892   2.892   2.892   2.892   2.892   2.892   2.892   2.892   2.892   2.892   2.892   2.892   2.892   2.892   2.892   2.892   2.892   2.892   2.892
   105.00    2.892   2.892   2.892   2.892   2.892   2.892   2.892   2.892   2.892   2.892   2.892   2.892   2.892   2.892   2.892   2.892   2.892   2.892   2.892   2.892   2.892   2.892   2.892   2.892   2.892   2.892   2.892   2.892   2.892   2.892   2.892   2.892   2.892   2.892   2.892   2.892   2.892   2.892   2.892   2.892   2.892   2.892   2.892   2.892   2.892   2.892   2.892   2.892   2.892   2.892   2.892   2.892   2.892
   100.00    2.892   2.892   2.892   2.892   2.892   2.892   2.892   2.892   2.892   2.892   2.892   2.892   2.892   2.892   2.892   2.892   2.892   2.892   2.892   2.892   2.892   2.892   2.892   2.892   2.892   2.892   2.892   2.892   2.892   2.892   2.892   2.892   2.892   2.892   2.892   2.892   2.892   2.892   2.892   2.892   2.892   2.892   2.892   2.892   2.892   2.892   2.892   2.892   2.892   2.892   2.892   2.892   2.892
    95.00    2.892   2.892   2.892   2.892   2.892   2.892   2.892   2.892   2.892   2.892   2.892   2.892   2.892   2.892   2.892   2.892   2.892   2.892   2.892   2.892   2.892   2.892   2.892   2.892   2.892   2.892   2.892   2.892   2.892   2.892   2.892   2.892   2.892   2.892   2.892   2.892   2.892   2.892   2.892   2.892   2.892   2.892   2.892   2.892   2.892   2.892   2.892   2.892   2.892   2.892   2.892   2.892   2.892
    90.00    2.892   2.892   2.892   2.892   2.892   2.892   2.892   2.892   2.892   2.892   2.892   2.892   2.892   2.892   2.892   2.892   2.892   2.892   2.892   2.892   2.892   2.892   2.892   2.892   2.892   2.892   2.892   2.892   2.892   2.892   2.892   2.892   2.892   2.892   2.892   2.892   2.892   2.892   2.892   2.892   2.892   2.892   2.892   2.892   2.892   2.892   2.892   2.892   2.892   2.892   2.892   2.892   2.892
    85.00    2.892   2.892   2.892   2.892   2.892   2.892   2.892   2.892   2.892   2.892   2.892   2.892   2.892   2.892   2.892   2.892   2.892   2.892   2.892   2.892   2.892   2.892   2.892   2.892   2.892   2.892   2.892   2.892   2.892   2.892   2.892   2.892   2.892   2.892   2.892   2.892   2.892   2.892   2.892   2.892   2.892   2.892   2.892   2.892   2.892   2.892   2.892   2.892   2.892   2.892   2.892   2.892   2.892
    80.00    2.892   2.892   2.892   2.892   2.892   2.892   2.892   2.892   2.892   2.892   2.892   2.892   2.892   2.892   2.892   2.892   2.892   2.892   2.892   2.892   2.892   2.892   2.892   2.892   2.892   2.892   2.892   2.892   2.892   2.892   2.892   2.892   2.892   2.892   2.892   2.892   2.892   2.892   2.892   2.892   2.892   2.892   2.892   2.892   2.892   2.892   2.892   2.892   2.892   2.892   2.892   2.892   2.892
    75.00    2.892   2.892   2.892   2.892   2.892   2.892   2.892   2.892   2.892   2.892   2.892   2.892   2.892   2.892   2.892   2.892   2.892   2.892   2.892   2.892   2.892   2.892   2.892   2.892   2.892   2.892   2.892   2.892   2.892   2.892   2.892   2.892   2.892   2.892   2.892   2.892   2.892   2.892   2.892   2.892   2.892   2.892   2.892   2.892   2.892   2.892   2.892   2.892   2.892   2.892   2.892   2.892   2.892
    70.00    2.892   2.892   2.892   2.892   2.892   2.892   2.892   2.892   2.892   2.892   2.892   2.892   2.892   2.892   2.892   2.892   2.892   2.892   2.892   2.892   2.892   2.892   2.892   2.892   2.892   2.892   2.892   2.892   2.892   2.892   2.892   2.892   2.892   2.892   2.892   2.892   2.892   2.892   2.892   2.892   2.892   2.892   2.892   2.892   2.892   2.892   2.892   2.892   2.892   2.892   2.892   2.892   2.892
    65.00    2.892   2.892   2.892   2.892   2.892   2.892   2.892   2.892   2.892   2.892   2.892   2.892   2.892   2.892   2.892   2.892   2.892   2.892   2.892   2.892   2.892   2.892   2.892   2.892   2.892   2.892   2.892   2.892   2.892   2.892   2.892   2.892   2.892   2.892   2.892   2.892   2.892   2.892   2.892   2.892   2.892   2.892   2.892   2.892   2.892   2.892   2.892   2.892   2.892   2.892   2.892   2.892   2.892
    60.00    2.892   2.892   2.892   2.892   2.892   2.892   2.892   2.892   2.892   2.892   2.892   2.892   2.892   2.892   2.892   2.892   2.892   2.892   2.892   2.892   2.892   2.892   2.892   2.892   2.892   2.892   2.892   2.892   2.892   2.892   2.892   2.892   2.892   2.892   2.892   2.892   2.892   2.892   2.892   2.892   2.892   2.892   2.892   2.892   2.892   2.892   2.892   2.892   2.892   2.892   2.892   2.892   2.892
    55.00    2.892   2.892   2.892   2.892   2.892   2.892   2.892   2.892   2.892   2.892   2.892   2.892   2.892   2.892   2.892   2.892   2.892   2.892   2.892   2.892   2.892   2.892   2.892   2.892   2.892   2.892   2.892   2.892   2.892   2.892   2.892   2.892   2.892   2.892   2.892   2.892   2.892   2.892   2.892   2.892   2.892   2.892   2.892   2.892   2.892   2.892   2.892   2.892   2.892   2.892   2.892   2.892   2.892
    50.00    2.892   2.892   2.892   2.892   2.892   2.892   2.892   2.892   2.892   2.892   2.892   2.892   2.892   2.892   2.892   2.892   2.892   2.892   2.892   2.892   2.892   2.892   2.892   2.892   2.892   2.892   2.892   2.892   2.892   2.892   2.892   2.892   2.892   2.892   2.892   2.892   2.892   2.892   2.892   2.892   2.892   2.892   2.892   2.892   2.892   2.892   2.892   2.892   2.892   2.892   2.892   2.892   2.892
    45.00    2.892   2.892   2.892   2.892   2.892   2.892   2.892   2.892   2.892   2.892   2.892   2.892   2.892   2.892   2.892   2.892   2.892   2.892   2.892   2.892   2.892   2.892   2.892   2.892   2.892   2.892   2.892   2.892   2.892   2.892   2.892   2.892   2.892   2.892   2.892   2.892   2.892   2.892   2.892   2.892   2.892   2.892   2.892   2.892   2.892   2.892   2.892   2.892   2.892   2.892   2.892   2.892   2.892
    40.00    2.892   2.892   2.892   2.892   2.892   2.892   2.892   2.892   2.892   2.892   2.892   2.892   2.892   2.892   2.892   2.892   2.892   2.892   2.892   2.892   2.892   2.892   2.892   2.892   2.892   2.892   2.892   2.892   2.892   2.892   2.892   2.892   2.892   2.892   2.892   2.892   2.892   2.892   2.892   2.892   2.892   2.892   2.892   2.892   2.892   2.892   2.892   2.892   2.892   2.892   2.892   2.892   2.892
    35.00    2.892   2.892   2.892   2.892   2.892   2.892   2.892   2.892   2.892   2.892   2.892   2.892   2.892   2.892   2.892   2.892   2.892   2.892   2.892   2.892   2.892   2.892   2.892   2.892   2.892   2.892   2.892   2.892   2.892   2.892   2.892   2.892   2.892   2.892   2.892   2.892   2.892   2.892   2.892   2.892   2.892   2.892   2.892   2.892   2.892   2.892   2.892   2.892   2.892   2.892   2.892   2.892   2.892
    30.00    2.892   2.892   2.892   2.892   2.892   2.892   2.892   2.892   2.892   2.892   2.892   2.892   2.892   2.892   2.892   2.892   2.892   2.892   2.892   2.892   2.892   2.892   2.892   2.892   2.892   2.892   2.892   2.892   2.892   2.892   2.892   2.892   2.892   2.892   2.892   2.892   2.892   2.892   2.892   2.892   2.892   2.892   2.892   2.892   2.892   2.892   2.892   2.892   2.892   2.892   2.892   2.892   2.892
    25.00    2.892   2.892   2.892   2.892   2.892   2.892   2.892   2.892   2.892   2.892   2.892   2.892   2.892   2.892   2.892   2.892   2.892   2.892   2.892   2.892   2.892   2.892   2.892   2.892   2.892   2.892   2.892   2.892   2.892   2.892   2.892   2.892   2.892   2.892   2.892   2.892   2.892   2.892   2.892   2.892   2.892   2.892   2.892   2.892   2.892   2.892   2.892   2.892   2.892   2.892   2.892   2.892   2.892
    20.00    2.892   2.892   2.892   2.892   2.892   2.892   2.892   2.892   2.892   2.892   2.892   2.892   2.892   2.892   2.892   2.892   2.892   2.892   2.892   2.892   2.892   2.892   2.892   2.892   2.892   2.892   2.892   2.892   2.892   2.892   2.892   2.892   2.892   2.892   2.892   2.892   2.892   2.892   2.892   2.892   2.892   2.892   2.892   2.892   2.892   2.892   2.892   2.892   2.892   2.892   2.892   2.892   2.892
    15.00    2.892   2.892   2.892   2.892   2.892   2.892   2.892   2.892   2.892   2.892   2.892   2.892   2.892   2.892   2.892   2.892   2.892   2.892   2.892   2.892   2.892   2.892   2.892   2.892   2.892   2.892   2.892   2.892   2.892   2.892   2.892   2.892   2.892   2.892   2.892   2.892   2.892   2.892   2.892   2.892   2.892   2.892   2.892   2.892   2.892   2.892   2.892   2.892   2.892   2.892   2.892   2.892   2.892
    10.00    2.892   2.892   2.892   2.892   2.892   2.892   2.892   2.892   2.892   2.892   2.892   2.892   2.892   2.892   2.892   2.892   2.892   2.892   2.892   2.892   2.892   2.892   2.892   2.892   2.892   2.892   2.892   2.892   2.892   2.892   2.892   2.892   2.892   2.892   2.892   2.892   2.892   2.892   2.892   2.892   2.892   2.892   2.892   2.892   2.892   2.892   2.892   2.892   2.892   2.892   2.892   2.892   2.892

   Height   Standard deviation at grid points for the w component:
   270.00    1.788   1.788   1.788   1.788   1.788   1.788   1.788   1.788   1.788   1.788   1.788   1.788   1.788   1.788   1.788   1.788   1.788   1.788   1.788   1.788   1.788   1.788   1.788   1.788   1.788   1.788   1.788   1.788   1.788   1.788   1.788   1.788   1.788   1.788   1.788   1.788   1.788   1.788   1.788   1.788   1.788   1.788   1.788   1.788   1.788   1.788   1.788   1.788   1.788   1.788   1.788   1.788   1.788
   265.00    1.788   1.788   1.788   1.788   1.788   1.788   1.788   1.788   1.788   1.788   1.788   1.788   1.788   1.788   1.788   1.788   1.788   1.788   1.788   1.788   1.788   1.788   1.788   1.788   1.788   1.788   1.788   1.788   1.788   1.788   1.788   1.788   1.788   1.788   1.788   1.788   1.788   1.788   1.788   1.788   1.788   1.788   1.788   1.788   1.788   1.788   1.788   1.788   1.788   1.788   1.788   1.788   1.788
   260.00    1.788   1.788   1.788   1.788   1.788   1.788   1.788   1.788   1.788   1.788   1.788   1.788   1.788   1.788   1.788   1.788   1.788   1.788   1.788   1.788   1.788   1.788   1.788   1.788   1.788   1.788   1.788   1.788   1.788   1.788   1.788   1.788   1.788   1.788   1.788   1.788   1.788   1.788   1.788   1.788   1.788   1.788   1.788   1.788   1.788   1.788   1.788   1.788   1.788   1.788   1.788   1.788   1.788
   255.00    1.788   1.788   1.788   1.788   1.788   1.788   1.788   1.788   1.788   1.788   1.788   1.788   1.788   1.788   1.788   1.788   1.788   1.788   1.788   1.788   1.788   1.788   1.788   1.788   1.788   1.788   1.788   1.788   1.788   1.788   1.788   1.788   1.788   1.788   1.788   1.788   1.788   1.788   1.788   1.788   1.788   1.788   1.788   1.788   1.788   1.788   1.788   1.788   1.788   1.788   1.788   1.788   1.788
   250.00    1.788   1.788   1.788   1.788   1.788   1.788   1.788   1.788   1.788   1.788   1.788   1.788   1.788   1.788   1.788   1.788   1.788   1.788   1.788   1.788   1.788   1.788   1.788   1.788   1.788   1.788   1.788   1.788   1.788   1.788   1.788   1.788   1.788   1.788   1.788   1.788   1.788   1.788   1.788   1.788   1.788   1.788   1.788   1.788   1.788   1.788   1.788   1.788   1.788   1.788   1.788   1.788   1.788
   245.00    1.788   1.788   1.788   1.788   1.788   1.788   1.788   1.788   1.788   1.788   1.788   1.788   1.788   1.788   1.788   1.788   1.788   1.788   1.788   1.788   1.788   1.788   1.788   1.788   1.788   1.788   1.788   1.788   1.788   1.788   1.788   1.788   1.788   1.788   1.788   1.788   1.788   1.788   1.788   1.788   1.788   1.788   1.788   1.788   1.788   1.788   1.788   1.788   1.788   1.788   1.788   1.788   1.788
   240.00    1.788   1.788   1.788   1.788   1.788   1.788   1.788   1.788   1.788   1.788   1.788   1.788   1.788   1.788   1.788   1.788   1.788   1.788   1.788   1.788   1.788   1.788   1.788   1.788   1.788   1.788   1.788   1.788   1.788   1.788   1.788   1.788   1.788   1.788   1.788   1.788   1.788   1.788   1.788   1.788   1.788   1.788   1.788   1.788   1.788   1.788   1.788   1.788   1.788   1.788   1.788   1.788   1.788
   235.00    1.788   1.788   1.788   1.788   1.788   1.788   1.788   1.788   1.788   1.788   1.788   1.788   1.788   1.788   1.788   1.788   1.788   1.788   1.788   1.788   1.788   1.788   1.788   1.788   1.788   1.788   1.788   1.788   1.788   1.788   1.788   1.788   1.788   1.788   1.788   1.788   1.788   1.788   1.788   1.788   1.788   1.788   1.788   1.788   1.788   1.788   1.788   1.788   1.788   1.788   1.788   1.788   1.788
   230.00    1.788   1.788   1.788   1.788   1.788   1.788   1.788   1.788   1.788   1.788   1.788   1.788   1.788   1.788   1.788   1.788   1.788   1.788   1.788   1.788   1.788   1.788   1.788   1.788   1.788   1.788   1.788   1.788   1.788   1.788   1.788   1.788   1.788   1.788   1.788   1.788   1.788   1.788   1.788   1.788   1.788   1.788   1.788   1.788   1.788   1.788   1.788   1.788   1.788   1.788   1.788   1.788   1.788
   225.00    1.788   1.788   1.788   1.788   1.788   1.788   1.788   1.788   1.788   1.788   1.788   1.788   1.788   1.788   1.788   1.788   1.788   1.788   1.788   1.788   1.788   1.788   1.788   1.788   1.788   1.788   1.788   1.788   1.788   1.788   1.788   1.788   1.788   1.788   1.788   1.788   1.788   1.788   1.788   1.788   1.788   1.788   1.788   1.788   1.788   1.788   1.788   1.788   1.788   1.788   1.788   1.788   1.788
   220.00    1.788   1.788   1.788   1.788   1.788   1.788   1.788   1.788   1.788   1.788   1.788   1.788   1.788   1.788   1.788   1.788   1.788   1.788   1.788   1.788   1.788   1.788   1.788   1.788   1.788   1.788   1.788   1.788   1.788   1.788   1.788   1.788   1.788   1.788   1.788   1.788   1.788   1.788   1.788   1.788   1.788   1.788   1.788   1.788   1.788   1.788   1.788   1.788   1.788   1.788   1.788   1.788   1.788
   215.00    1.788   1.788   1.788   1.788   1.788   1.788   1.788   1.788   1.788   1.788   1.788   1.788   1.788   1.788   1.788   1.788   1.788   1.788   1.788   1.788   1.788   1.788   1.788   1.788   1.788   1.788   1.788   1.788   1.788   1.788   1.788   1.788   1.788   1.788   1.788   1.788   1.788   1.788   1.788   1.788   1.788   1.788   1.788   1.788   1.788   1.788   1.788   1.788   1.788   1.788   1.788   1.788   1.788
   210.00    1.788   1.788   1.788   1.788   1.788   1.788   1.788   1.788   1.788   1.788   1.788   1.788   1.788   1.788   1.788   1.788   1.788   1.788   1.788   1.788   1.788   1.788   1.788   1.788   1.788   1.788   1.788   1.788   1.788   1.788   1.788   1.788   1.788   1.788   1.788   1.788   1.788   1.788   1.788   1.788   1.788   1.788   1.788   1.788   1.788   1.788   1.788   1.788   1.788   1.788   1.788   1.788   1.788
   205.00    1.788   1.788   1.788   1.788   1.788   1.788   1.788   1.788   1.788   1.788   1.788   1.788   1.788   1.788   1.788   1.788   1.788   1.788   1.788   1.788   1.788   1.788   1.788   1.788   1.788   1.788   1.788   1.788   1.788   1.788   1.788   1.788   1.788   1.788   1.788   1.788   1.788   1.788   1.788   1.788   1.788   1.788   1.788   1.788   1.788   1.788   1.788   1.788   1.788   1.788   1.788   1.788   1.788
   200.00    1.788   1.788   1.788   1.788   1.788   1.788   1.788   1.788   1.788   1.788   1.788   1.788   1.788   1.788   1.788   1.788   1.788   1.788   1.788   1.788   1.788   1.788   1.788   1.788   1.788   1.788   1.788   1.788   1.788   1.788   1.788   1.788   1.788   1.788   1.788   1.788   1.788   1.788   1.788   1.788   1.788   1.788   1.788   1.788   1.788   1.788   1.788   1.788   1.788   1.788   1.788   1.788   1.788
   195.00    1.788   1.788   1.788   1.788   1.788   1.788   1.788   1.788   1.788   1.788   1.788   1.788   1.788   1.788   1.788   1.788   1.788   1.788   1.788   1.788   1.788   1.788   1.788   1.788   1.788   1.788   1.788   1.788   1.788   1.788   1.788   1.788   1.788   1.788   1.788   1.788   1.788   1.788   1.788   1.788   1.788   1.788   1.788   1.788   1.788   1.788   1.788   1.788   1.788   1.788   1.788   1.788   1.788
   190.00    1.788   1.788   1.788   1.788   1.788   1.788   1.788   1.788   1.788   1.788   1.788   1.788   1.788   1.788   1.788   1.788   1.788   1.788   1.788   1.788   1.788   1.788   1.788   1.788   1.788   1.788   1.788   1.788   1.788   1.788   1.788   1.788   1.788   1.788   1.788   1.788   1.788   1.788   1.788   1.788   1.788   1.788   1.788   1.788   1.788   1.788   1.788   1.788   1.788   1.788   1.788   1.788   1.788
   185.00    1.788   1.788   1.788   1.788   1.788   1.788   1.788   1.788   1.788   1.788   1.788   1.788   1.788   1.788   1.788   1.788   1.788   1.788   1.788   1.788   1.788   1.788   1.788   1.788   1.788   1.788   1.788   1.788   1.788   1.788   1.788   1.788   1.788   1.788   1.788   1.788   1.788   1.788   1.788   1.788   1.788   1.788   1.788   1.788   1.788   1.788   1.788   1.788   1.788   1.788   1.788   1.788   1.788
   180.00    1.788   1.788   1.788   1.788   1.788   1.788   1.788   1.788   1.788   1.788   1.788   1.788   1.788   1.788   1.788   1.788   1.788   1.788   1.788   1.788   1.788   1.788   1.788   1.788   1.788   1.788   1.788   1.788   1.788   1.788   1.788   1.788   1.788   1.788   1.788   1.788   1.788   1.788   1.788   1.788   1.788   1.788   1.788   1.788   1.788   1.788   1.788   1.788   1.788   1.788   1.788   1.788   1.788
   175.00    1.788   1.788   1.788   1.788   1.788   1.788   1.788   1.788   1.788   1.788   1.788   1.788   1.788   1.788   1.788   1.788   1.788   1.788   1.788   1.788   1.788   1.788   1.788   1.788   1.788   1.788   1.788   1.788   1.788   1.788   1.788   1.788   1.788   1.788   1.788   1.788   1.788   1.788   1.788   1.788   1.788   1.788   1.788   1.788   1.788   1.788   1.788   1.788   1.788   1.788   1.788   1.788   1.788
   170.00    1.788   1.788   1.788   1.788   1.788   1.788   1.788   1.788   1.788   1.788   1.788   1.788   1.788   1.788   1.788   1.788   1.788   1.788   1.788   1.788   1.788   1.788   1.788   1.788   1.788   1.788   1.788   1.788   1.788   1.788   1.788   1.788   1.788   1.788   1.788   1.788   1.788   1.788   1.788   1.788   1.788   1.788   1.788   1.788   1.788   1.788   1.788   1.788   1.788   1.788   1.788   1.788   1.788
   165.00    1.788   1.788   1.788   1.788   1.788   1.788   1.788   1.788   1.788   1.788   1.788   1.788   1.788   1.788   1.788   1.788   1.788   1.788   1.788   1.788   1.788   1.788   1.788   1.788   1.788   1.788   1.788   1.788   1.788   1.788   1.788   1.788   1.788   1.788   1.788   1.788   1.788   1.788   1.788   1.788   1.788   1.788   1.788   1.788   1.788   1.788   1.788   1.788   1.788   1.788   1.788   1.788   1.788
   160.00    1.788   1.788   1.788   1.788   1.788   1.788   1.788   1.788   1.788   1.788   1.788   1.788   1.788   1.788   1.788   1.788   1.788   1.788   1.788   1.788   1.788   1.788   1.788   1.788   1.788   1.788   1.788   1.788   1.788   1.788   1.788   1.788   1.788   1.788   1.788   1.788   1.788   1.788   1.788   1.788   1.788   1.788   1.788   1.788   1.788   1.788   1.788   1.788   1.788   1.788   1.788   1.788   1.788
   155.00    1.788   1.788   1.788   1.788   1.788   1.788   1.788   1.788   1.788   1.788   1.788   1.788   1.788   1.788   1.788   1.788   1.788   1.788   1.788   1.788   1.788   1.788   1.788   1.788   1.788   1.788   1.788   1.788   1.788   1.788   1.788   1.788   1.788   1.788   1.788   1.788   1.788   1.788   1.788   1.788   1.788   1.788   1.788   1.788   1.788   1.788   1.788   1.788   1.788   1.788   1.788   1.788   1.788
   150.00    1.788   1.788   1.788   1.788   1.788   1.788   1.788   1.788   1.788   1.788   1.788   1.788   1.788   1.788   1.788   1.788   1.788   1.788   1.788   1.788   1.788   1.788   1.788   1.788   1.788   1.788   1.788   1.788   1.788   1.788   1.788   1.788   1.788   1.788   1.788   1.788   1.788   1.788   1.788   1.788   1.788   1.788   1.788   1.788   1.788   1.788   1.788   1.788   1.788   1.788   1.788   1.788   1.788
   145.00    1.788   1.788   1.788   1.788   1.788   1.788   1.788   1.788   1.788   1.788   1.788   1.788   1.788   1.788   1.788   1.788   1.788   1.788   1.788   1.788   1.788   1.788   1.788   1.788   1.788   1.788   1.788   1.788   1.788   1.788   1.788   1.788   1.788   1.788   1.788   1.788   1.788   1.788   1.788   1.788   1.788   1.788   1.788   1.788   1.788   1.788   1.788   1.788   1.788   1.788   1.788   1.788   1.788
   140.00    1.788   1.788   1.788   1.788   1.788   1.788   1.788   1.788   1.788   1.788   1.788   1.788   1.788   1.788   1.788   1.788   1.788   1.788   1.788   1.788   1.788   1.788   1.788   1.788   1.788   1.788   1.788   1.788   1.788   1.788   1.788   1.788   1.788   1.788   1.788   1.788   1.788   1.788   1.788   1.788   1.788   1.788   1.788   1.788   1.788   1.788   1.788   1.788   1.788   1.788   1.788   1.788   1.788
   135.00    1.788   1.788   1.788   1.788   1.788   1.788   1.788   1.788   1.788   1.788   1.788   1.788   1.788   1.788   1.788   1.788   1.788   1.788   1.788   1.788   1.788   1.788   1.788   1.788   1.788   1.788   1.788   1.788   1.788   1.788   1.788   1.788   1.788   1.788   1.788   1.788   1.788   1.788   1.788   1.788   1.788   1.788   1.788   1.788   1.788   1.788   1.788   1.788   1.788   1.788   1.788   1.788   1.788
   130.00    1.788   1.788   1.788   1.788   1.788   1.788   1.788   1.788   1.788   1.788   1.788   1.788   1.788   1.788   1.788   1.788   1.788   1.788   1.788   1.788   1.788   1.788   1.788   1.788   1.788   1.788   1.788   1.788   1.788   1.788   1.788   1.788   1.788   1.788   1.788   1.788   1.788   1.788   1.788   1.788   1.788   1.788   1.788   1.788   1.788   1.788   1.788   1.788   1.788   1.788   1.788   1.788   1.788
   125.00    1.788   1.788   1.788   1.788   1.788   1.788   1.788   1.788   1.788   1.788   1.788   1.788   1.788   1.788   1.788   1.788   1.788   1.788   1.788   1.788   1.788   1.788   1.788   1.788   1.788   1.788   1.788   1.788   1.788   1.788   1.788   1.788   1.788   1.788   1.788   1.788   1.788   1.788   1.788   1.788   1.788   1.788   1.788   1.788   1.788   1.788   1.788   1.788   1.788   1.788   1.788   1.788   1.788
   120.00    1.788   1.788   1.788   1.788   1.788   1.788   1.788   1.788   1.788   1.788   1.788   1.788   1.788   1.788   1.788   1.788   1.788   1.788   1.788   1.788   1.788   1.788   1.788   1.788   1.788   1.788   1.788   1.788   1.788   1.788   1.788   1.788   1.788   1.788   1.788   1.788   1.788   1.788   1.788   1.788   1.788   1.788   1.788   1.788   1.788   1.788   1.788   1.788   1.788   1.788   1.788   1.788   1.788
   115.00    1.788   1.788   1.788   1.788   1.788   1.788   1.788   1.788   1.788   1.788   1.788   1.788   1.788   1.788   1.788   1.788   1.788   1.788   1.788   1.788   1.788   1.788   1.788   1.788   1.788   1.788   1.788   1.788   1.788   1.788   1.788   1.788   1.788   1.788   1.788   1.788   1.788   1.788   1.788   1.788   1.788   1.788   1.788   1.788   1.788   1.788   1.788   1.788   1.788   1.788   1.788   1.788   1.788
   110.00    1.788   1.788   1.788   1.788   1.788   1.788   1.788   1.788   1.788   1.788   1.788   1.788   1.788   1.788   1.788   1.788   1.788   1.788   1.788   1.788   1.788   1.788   1.788   1.788   1.788   1.788   1.788   1.788   1.788   1.788   1.788   1.788   1.788   1.788   1.788   1.788   1.788   1.788   1.788   1.788   1.788   1.788   1.788   1.788   1.788   1.788   1.788   1.788   1.788   1.788   1.788   1.788   1.788
   105.00    1.788   1.788   1.788   1.788   1.788   1.788   1.788   1.788   1.788   1.788   1.788   1.788   1.788   1.788   1.788   1.788   1.788   1.788   1.788   1.788   1.788   1.788   1.788   1.788   1.788   1.788   1.788   1.788   1.788   1.788   1.788   1.788   1.788   1.788   1.788   1.788   1.788   1.788   1.788   1.788   1.788   1.788   1.788   1.788   1.788   1.788   1.788   1.788   1.788   1.788   1.788   1.788   1.788
   100.00    1.788   1.788   1.788   1.788   1.788   1.788   1.788   1.788   1.788   1.788   1.788   1.788   1.788   1.788   1.788   1.788   1.788   1.788   1.788   1.788   1.788   1.788   1.788   1.788   1.788   1.788   1.788   1.788   1.788   1.788   1.788   1.788   1.788   1.788   1.788   1.788   1.788   1.788   1.788   1.788   1.788   1.788   1.788   1.788   1.788   1.788   1.788   1.788   1.788   1.788   1.788   1.788   1.788
    95.00    1.788   1.788   1.788   1.788   1.788   1.788   1.788   1.788   1.788   1.788   1.788   1.788   1.788   1.788   1.788   1.788   1.788   1.788   1.788   1.788   1.788   1.788   1.788   1.788   1.788   1.788   1.788   1.788   1.788   1.788   1.788   1.788   1.788   1.788   1.788   1.788   1.788   1.788   1.788   1.788   1.788   1.788   1.788   1.788   1.788   1.788   1.788   1.788   1.788   1.788   1.788   1.788   1.788
    90.00    1.788   1.788   1.788   1.788   1.788   1.788   1.788   1.788   1.788   1.788   1.788   1.788   1.788   1.788   1.788   1.788   1.788   1.788   1.788   1.788   1.788   1.788   1.788   1.788   1.788   1.788   1.788   1.788   1.788   1.788   1.788   1.788   1.788   1.788   1.788   1.788   1.788   1.788   1.788   1.788   1.788   1.788   1.788   1.788   1.788   1.788   1.788   1.788   1.788   1.788   1.788   1.788   1.788
    85.00    1.788   1.788   1.788   1.788   1.788   1.788   1.788   1.788   1.788   1.788   1.788   1.788   1.788   1.788   1.788   1.788   1.788   1.788   1.788   1.788   1.788   1.788   1.788   1.788   1.788   1.788   1.788   1.788   1.788   1.788   1.788   1.788   1.788   1.788   1.788   1.788   1.788   1.788   1.788   1.788   1.788   1.788   1.788   1.788   1.788   1.788   1.788   1.788   1.788   1.788   1.788   1.788   1.788
    80.00    1.788   1.788   1.788   1.788   1.788   1.788   1.788   1.788   1.788   1.788   1.788   1.788   1.788   1.788   1.788   1.788   1.788   1.788   1.788   1.788   1.788   1.788   1.788   1.788   1.788   1.788   1.788   1.788   1.788   1.788   1.788   1.788   1.788   1.788   1.788   1.788   1.788   1.788   1.788   1.788   1.788   1.788   1.788   1.788   1.788   1.788   1.788   1.788   1.788   1.788   1.788   1.788   1.788
    75.00    1.788   1.788   1.788   1.788   1.788   1.788   1.788   1.788   1.788   1.788   1.788   1.788   1.788   1.788   1.788   1.788   1.788   1.788   1.788   1.788   1.788   1.788   1.788   1.788   1.788   1.788   1.788   1.788   1.788   1.788   1.788   1.788   1.788   1.788   1.788   1.788   1.788   1.788   1.788   1.788   1.788   1.788   1.788   1.788   1.788   1.788   1.788   1.788   1.788   1.788   1.788   1.788   1.788
    70.00    1.788   1.788   1.788   1.788   1.788   1.788   1.788   1.788   1.788   1.788   1.788   1.788   1.788   1.788   1.788   1.788   1.788   1.788   1.788   1.788   1.788   1.788   1.788   1.788   1.788   1.788   1.788   1.788   1.788   1.788   1.788   1.788   1.788   1.788   1.788   1.788   1.788   1.788   1.788   1.788   1.788   1.788   1.788   1.788   1.788   1.788   1.788   1.788   1.788   1.788   1.788   1.788   1.788
    65.00    1.788   1.788   1.788   1.788   1.788   1.788   1.788   1.788   1.788   1.788   1.788   1.788   1.788   1.788   1.788   1.788   1.788   1.788   1.788   1.788   1.788   1.788   1.788   1.788   1.788   1.788   1.788   1.788   1.788   1.788   1.788   1.788   1.788   1.788   1.788   1.788   1.788   1.788   1.788   1.788   1.788   1.788   1.788   1.788   1.788   1.788   1.788   1.788   1.788   1.788   1.788   1.788   1.788
    60.00    1.788   1.788   1.788   1.788   1.788   1.788   1.788   1.788   1.788   1.788   1.788   1.788   1.788   1.788   1.788   1.788   1.788   1.788   1.788   1.788   1.788   1.788   1.788   1.788   1.788   1.788   1.788   1.788   1.788   1.788   1.788   1.788   1.788   1.788   1.788   1.788   1.788   1.788   1.788   1.788   1.788   1.788   1.788   1.788   1.788   1.788   1.788   1.788   1.788   1.788   1.788   1.788   1.788
    55.00    1.788   1.788   1.788   1.788   1.788   1.788   1.788   1.788   1.788   1.788   1.788   1.788   1.788   1.788   1.788   1.788   1.788   1.788   1.788   1.788   1.788   1.788   1.788   1.788   1.788   1.788   1.788   1.788   1.788   1.788   1.788   1.788   1.788   1.788   1.788   1.788   1.788   1.788   1.788   1.788   1.788   1.788   1.788   1.788   1.788   1.788   1.788   1.788   1.788   1.788   1.788   1.788   1.788
    50.00    1.788   1.788   1.788   1.788   1.788   1.788   1.788   1.788   1.788   1.788   1.788   1.788   1.788   1.788   1.788   1.788   1.788   1.788   1.788   1.788   1.788   1.788   1.788   1.788   1.788   1.788   1.788   1.788   1.788   1.788   1.788   1.788   1.788   1.788   1.788   1.788   1.788   1.788   1.788   1.788   1.788   1.788   1.788   1.788   1.788   1.788   1.788   1.788   1.788   1.788   1.788   1.788   1.788
    45.00    1.788   1.788   1.788   1.788   1.788   1.788   1.788   1.788   1.788   1.788   1.788   1.788   1.788   1.788   1.788   1.788   1.788   1.788   1.788   1.788   1.788   1.788   1.788   1.788   1.788   1.788   1.788   1.788   1.788   1.788   1.788   1.788   1.788   1.788   1.788   1.788   1.788   1.788   1.788   1.788   1.788   1.788   1.788   1.788   1.788   1.788   1.788   1.788   1.788   1.788   1.788   1.788   1.788
    40.00    1.788   1.788   1.788   1.788   1.788   1.788   1.788   1.788   1.788   1.788   1.788   1.788   1.788   1.788   1.788   1.788   1.788   1.788   1.788   1.788   1.788   1.788   1.788   1.788   1.788   1.788   1.788   1.788   1.788   1.788   1.788   1.788   1.788   1.788   1.788   1.788   1.788   1.788   1.788   1.788   1.788   1.788   1.788   1.788   1.788   1.788   1.788   1.788   1.788   1.788   1.788   1.788   1.788
    35.00    1.788   1.788   1.788   1.788   1.788   1.788   1.788   1.788   1.788   1.788   1.788   1.788   1.788   1.788   1.788   1.788   1.788   1.788   1.788   1.788   1.788   1.788   1.788   1.788   1.788   1.788   1.788   1.788   1.788   1.788   1.788   1.788   1.788   1.788   1.788   1.788   1.788   1.788   1.788   1.788   1.788   1.788   1.788   1.788   1.788   1.788   1.788   1.788   1.788   1.788   1.788   1.788   1.788
    30.00    1.788   1.788   1.788   1.788   1.788   1.788   1.788   1.788   1.788   1.788   1.788   1.788   1.788   1.788   1.788   1.788   1.788   1.788   1.788   1.788   1.788   1.788   1.788   1.788   1.788   1.788   1.788   1.788   1.788   1.788   1.788   1.788   1.788   1.788   1.788   1.788   1.788   1.788   1.788   1.788   1.788   1.788   1.788   1.788   1.788   1.788   1.788   1.788   1.788   1.788   1.788   1.788   1.788
    25.00    1.788   1.788   1.788   1.788   1.788   1.788   1.788   1.788   1.788   1.788   1.788   1.788   1.788   1.788   1.788   1.788   1.788   1.788   1.788   1.788   1.788   1.788   1.788   1.788   1.788   1.788   1.788   1.788   1.788   1.788   1.788   1.788   1.788   1.788   1.788   1.788   1.788   1.788   1.788   1.788   1.788   1.788   1.788   1.788   1.788   1.788   1.788   1.788   1.788   1.788   1.788   1.788   1.788
    20.00    1.788   1.788   1.788   1.788   1.788   1.788   1.788   1.788   1.788   1.788   1.788   1.788   1.788   1.788   1.788   1.788   1.788   1.788   1.788   1.788   1.788   1.788   1.788   1.788   1.788   1.788   1.788   1.788   1.788   1.788   1.788   1.788   1.788   1.788   1.788   1.788   1.788   1.788   1.788   1.788   1.788   1.788   1.788   1.788   1.788   1.788   1.788   1.788   1.788   1.788   1.788   1.788   1.788
    15.00    1.788   1.788   1.788   1.788   1.788   1.788   1.788   1.788   1.788   1.788   1.788   1.788   1.788   1.788   1.788   1.788   1.788   1.788   1.788   1.788   1.788   1.788   1.788   1.788   1.788   1.788   1.788   1.788   1.788   1.788   1.788   1.788   1.788   1.788   1.788   1.788   1.788   1.788   1.788   1.788   1.788   1.788   1.788   1.788   1.788   1.788   1.788   1.788   1.788   1.788   1.788   1.788   1.788
    10.00    1.788   1.788   1.788   1.788   1.788   1.788   1.788   1.788   1.788   1.788   1.788   1.788   1.788   1.788   1.788   1.788   1.788   1.788   1.788   1.788   1.788   1.788   1.788   1.788   1.788   1.788   1.788   1.788   1.788   1.788   1.788   1.788   1.788   1.788   1.788   1.788   1.788   1.788   1.788   1.788   1.788   1.788   1.788   1.788   1.788   1.788   1.788   1.788   1.788   1.788   1.788   1.788   1.788

   Mean standard deviation across all grid points:
      u component:    3.612 m/s
      v component:    2.892 m/s
      w component:    1.788 m/s


U-component (X) statistics from the hub grid point:

   Mean =  21.0000 m/s
   TI   =  17.4144 %

Nyquist frequency of turbulent wind field =        10.000 Hz


Processing complete.  1762.7 CPU seconds used.
