
This summary file was generated by TurbSim (v1.50, 25-Sep-2009) on 26-Nov-2024 at 10:47:19.


Runtime Options:

1422679293  Random seed #1
    RANLUX  Type of random number generator
         F  Output binary HH turbulence parameters?
         F  Output formatted turbulence parameters?
         F  Output AeroDyn HH files?
         T  Output AeroDyn FF files?
         T  Output BLADED FF files?
         F  Output tower data?
         F  Output formatted FF files?
         F  Output coherent turbulence time step file?
         T  Clockwise rotation when looking downwind?
 0 -  NONE  IEC turbulence models scaled to exact specified standard deviation


Turbine/Model Specifications:

        56  Vertical grid-point matrix dimension
        56  Horizontal grid-point matrix dimension
     0.050  Time step [seconds]
   650.000  Analysis time [seconds]
   610.000  Usable output time [seconds]
   140.000  Hub height [m]
   220.000  Grid height [m]
   220.000  Grid width [m]
     0.000  Vertical flow angle [degrees]
     0.000  Horizontal flow angle [degrees]


Meteorological Boundary Conditions:

    IECKAI  IEC Kaimal spectral model
         1  IEC standard: IEC 61400-1 Ed. 3: 2005
         B  IEC turbulence characteristic
      3ETM  IEC Extreme Turbulence Model
     2.000  IEC Extreme Turbulence Model (ETM) "c" parameter [m/s]
       IEC  Wind profile type
   140.000  Reference height [m]
    13.000  Reference wind speed [m/s]
       N/A  Jet height [m]
     0.200  Power law exponent
     0.030  Surface roughness length [m]


You have requested that the following file(s) be generated:

   .\TurbSim.bts (AeroDyn/TurbSim full-field wind file)
   .\TurbSim.wnd (AeroDyn/BLADED full-field wnd file)


Turbulence Simulation Scaling Parameter Summary:

   Turbulence model used                            =  IEC Kaimal
   Turbulence characteristic                        =  3B
   IEC turbulence type                              =  Extreme Turbulence Model
   Reference wind speed average over 10 minutes     =   37.500 m/s
   Annual wind speed average at hub height          =    7.500 m/s
   IEC standard                                     =  IEC 61400-1 Ed. 3: 2005
   Mean wind speed at hub height                    =   13.000 m/s
   Expected value of turbulence intensity at 15 m/s =   14.000%
   Characteristic value of standard deviation       =    3.140 m/s
   Turbulence scale                                 =   42.000 m
   u-component integral scale                       =  340.200 m
   Coherency scale                                  =  340.200 m
   Characteristic value of hub turbulence intensity =   24.155%
   Gradient Richardson number                       =    0.000

   Wind profile type                                =  Power law on rotor disk, logarithmic elsewhere
   Power law exponent                               =    0.200
   Mean shear across rotor disk                     =    0.023 (m/s)/m
   Assumed rotor diameter                           =  220.000 m
   Surface roughness length                         =    0.030 m

   Number of time steps in the FFT                  =    13000
   Number of time steps output                      =    12539


Mean Flow Angles:

   Vertical   =   0.0 degrees
   Horizontal =   0.0 degrees

Mean Wind Speed Profile:

   Height    Wind Speed   Horizontal Angle  U-comp (X)   V-comp (Y)   W-comp (Z)
     (m)        (m/s)         (degrees)       (m/s)        (m/s)        (m/s)   
   ------    ----------   ----------------  ----------   ----------   ----------
    250.0       14.60            0.00         14.60         0.00         0.00
    246.0       14.55            0.00         14.55         0.00         0.00
    242.0       14.50            0.00         14.50         0.00         0.00
    238.0       14.46            0.00         14.46         0.00         0.00
    234.0       14.41            0.00         14.41         0.00         0.00
    230.0       14.36            0.00         14.36         0.00         0.00
    226.0       14.31            0.00         14.31         0.00         0.00
    222.0       14.26            0.00         14.26         0.00         0.00
    218.0       14.20            0.00         14.20         0.00         0.00
    214.0       14.15            0.00         14.15         0.00         0.00
    210.0       14.10            0.00         14.10         0.00         0.00
    206.0       14.04            0.00         14.04         0.00         0.00
    202.0       13.99            0.00         13.99         0.00         0.00
    198.0       13.93            0.00         13.93         0.00         0.00
    194.0       13.88            0.00         13.88         0.00         0.00
    190.0       13.82            0.00         13.82         0.00         0.00
    186.0       13.76            0.00         13.76         0.00         0.00
    182.0       13.70            0.00         13.70         0.00         0.00
    178.0       13.64            0.00         13.64         0.00         0.00
    174.0       13.58            0.00         13.58         0.00         0.00
    170.0       13.51            0.00         13.51         0.00         0.00
    166.0       13.45            0.00         13.45         0.00         0.00
    162.0       13.39            0.00         13.39         0.00         0.00
    158.0       13.32            0.00         13.32         0.00         0.00
    154.0       13.25            0.00         13.25         0.00         0.00
    150.0       13.18            0.00         13.18         0.00         0.00
    146.0       13.11            0.00         13.11         0.00         0.00
    142.0       13.04            0.00         13.04         0.00         0.00
    140.0       13.00            0.00         13.00         0.00         0.00
    138.0       12.96            0.00         12.96         0.00         0.00
    134.0       12.89            0.00         12.89         0.00         0.00
    130.0       12.81            0.00         12.81         0.00         0.00
    126.0       12.73            0.00         12.73         0.00         0.00
    122.0       12.65            0.00         12.65         0.00         0.00
    118.0       12.56            0.00         12.56         0.00         0.00
    114.0       12.48            0.00         12.48         0.00         0.00
    110.0       12.39            0.00         12.39         0.00         0.00
    106.0       12.30            0.00         12.30         0.00         0.00
    102.0       12.20            0.00         12.20         0.00         0.00
     98.0       12.10            0.00         12.10         0.00         0.00
     94.0       12.00            0.00         12.00         0.00         0.00
     90.0       11.90            0.00         11.90         0.00         0.00
     86.0       11.79            0.00         11.79         0.00         0.00
     82.0       11.68            0.00         11.68         0.00         0.00
     78.0       11.56            0.00         11.56         0.00         0.00
     74.0       11.44            0.00         11.44         0.00         0.00
     70.0       11.32            0.00         11.32         0.00         0.00
     66.0       11.18            0.00         11.18         0.00         0.00
     62.0       11.05            0.00         11.05         0.00         0.00
     58.0       10.90            0.00         10.90         0.00         0.00
     54.0       10.74            0.00         10.74         0.00         0.00
     50.0       10.58            0.00         10.58         0.00         0.00
     46.0       10.41            0.00         10.41         0.00         0.00
     42.0       10.22            0.00         10.22         0.00         0.00
     38.0       10.02            0.00         10.02         0.00         0.00
     34.0        9.80            0.00          9.80         0.00         0.00
     30.0        9.55            0.00          9.55         0.00         0.00


Harvested Random Seeds after Generation of the Random Numbers:

    568385088 K1
            0 K2
