
This summary file was generated by TurbSim (v1.50, 25-Sep-2009) on 22-Nov-2024 at 12:21:12.


Runtime Options:

1051894539  Random seed #1
    RANLUX  Type of random number generator
         F  Output binary HH turbulence parameters?
         F  Output formatted turbulence parameters?
         F  Output AeroDyn HH files?
         T  Output AeroDyn FF files?
         T  Output BLADED FF files?
         F  Output tower data?
         F  Output formatted FF files?
         F  Output coherent turbulence time step file?
         T  Clockwise rotation when looking downwind?
 0 -  NONE  IEC turbulence models scaled to exact specified standard deviation


Turbine/Model Specifications:

        56  Vertical grid-point matrix dimension
        56  Horizontal grid-point matrix dimension
     0.050  Time step [seconds]
   650.000  Analysis time [seconds]
   610.000  Usable output time [seconds]
   140.000  Hub height [m]
   220.000  Grid height [m]
   220.000  Grid width [m]
     0.000  Vertical flow angle [degrees]
     0.000  Horizontal flow angle [degrees]


Meteorological Boundary Conditions:

    IECKAI  IEC Kaimal spectral model
         1  IEC standard: IEC 61400-1 Ed. 3: 2005
         B  IEC turbulence characteristic
    3EWM50  IEC Extreme 50-Year Wind Speed Model
       N/A  IEC Extreme Turbulence Model (ETM) "c" parameter [m/s]
       IEC  Wind profile type
   140.000  Reference height [m]
       N/A  Reference wind speed [m/s]
       N/A  Jet height [m]
       N/A  Power law exponent
     0.030  Surface roughness length [m]


You have requested that the following file(s) be generated:

   .\TurbSim.bts (AeroDyn/TurbSim full-field wind file)
   .\TurbSim.wnd (AeroDyn/BLADED full-field wnd file)


Turbulence Simulation Scaling Parameter Summary:

   Turbulence model used                            =  IEC Kaimal
   Turbulence characteristic                        =  3B
   IEC turbulence type                              =  Extreme 50-Year Wind Speed Model
   Reference wind speed average over 10 minutes     =   37.500 m/s
   Annual wind speed average at hub height          =    7.500 m/s
   IEC standard                                     =  IEC 61400-1 Ed. 3: 2005
   Mean wind speed at hub height                    =   37.500 m/s
   Expected value of turbulence intensity at 15 m/s =   14.000%
   Characteristic value of standard deviation       =    4.125 m/s
   Turbulence scale                                 =   42.000 m
   u-component integral scale                       =  340.200 m
   Coherency scale                                  =  340.200 m
   Characteristic value of hub turbulence intensity =   11.000%
   Gradient Richardson number                       =    0.000

   Wind profile type                                =  Power law on rotor disk, logarithmic elsewhere
   Power law exponent                               =    0.110
   Mean shear across rotor disk                     =    0.038 (m/s)/m
   Assumed rotor diameter                           =  220.000 m
   Surface roughness length                         =    0.030 m

   Number of time steps in the FFT                  =    13000
   Number of time steps output                      =    12318


Mean Flow Angles:

   Vertical   =   0.0 degrees
   Horizontal =   0.0 degrees

Mean Wind Speed Profile:

   Height    Wind Speed   Horizontal Angle  U-comp (X)   V-comp (Y)   W-comp (Z)
     (m)        (m/s)         (degrees)       (m/s)        (m/s)        (m/s)   
   ------    ----------   ----------------  ----------   ----------   ----------
    250.0       39.97            0.00         39.97         0.00         0.00
    246.0       39.90            0.00         39.90         0.00         0.00
    242.0       39.83            0.00         39.83         0.00         0.00
    238.0       39.75            0.00         39.75         0.00         0.00
    234.0       39.68            0.00         39.68         0.00         0.00
    230.0       39.60            0.00         39.60         0.00         0.00
    226.0       39.53            0.00         39.53         0.00         0.00
    222.0       39.45            0.00         39.45         0.00         0.00
    218.0       39.37            0.00         39.37         0.00         0.00
    214.0       39.29            0.00         39.29         0.00         0.00
    210.0       39.21            0.00         39.21         0.00         0.00
    206.0       39.13            0.00         39.13         0.00         0.00
    202.0       39.04            0.00         39.04         0.00         0.00
    198.0       38.96            0.00         38.96         0.00         0.00
    194.0       38.87            0.00         38.87         0.00         0.00
    190.0       38.78            0.00         38.78         0.00         0.00
    186.0       38.69            0.00         38.69         0.00         0.00
    182.0       38.60            0.00         38.60         0.00         0.00
    178.0       38.50            0.00         38.50         0.00         0.00
    174.0       38.41            0.00         38.41         0.00         0.00
    170.0       38.31            0.00         38.31         0.00         0.00
    166.0       38.21            0.00         38.21         0.00         0.00
    162.0       38.11            0.00         38.11         0.00         0.00
    158.0       38.00            0.00         38.00         0.00         0.00
    154.0       37.90            0.00         37.90         0.00         0.00
    150.0       37.79            0.00         37.79         0.00         0.00
    146.0       37.67            0.00         37.67         0.00         0.00
    142.0       37.56            0.00         37.56         0.00         0.00
    140.0       37.50            0.00         37.50         0.00         0.00
    138.0       37.44            0.00         37.44         0.00         0.00
    134.0       37.32            0.00         37.32         0.00         0.00
    130.0       37.20            0.00         37.20         0.00         0.00
    126.0       37.07            0.00         37.07         0.00         0.00
    122.0       36.94            0.00         36.94         0.00         0.00
    118.0       36.80            0.00         36.80         0.00         0.00
    114.0       36.66            0.00         36.66         0.00         0.00
    110.0       36.52            0.00         36.52         0.00         0.00
    106.0       36.37            0.00         36.37         0.00         0.00
    102.0       36.22            0.00         36.22         0.00         0.00
     98.0       36.06            0.00         36.06         0.00         0.00
     94.0       35.89            0.00         35.89         0.00         0.00
     90.0       35.72            0.00         35.72         0.00         0.00
     86.0       35.54            0.00         35.54         0.00         0.00
     82.0       35.36            0.00         35.36         0.00         0.00
     78.0       35.16            0.00         35.16         0.00         0.00
     74.0       34.96            0.00         34.96         0.00         0.00
     70.0       34.75            0.00         34.75         0.00         0.00
     66.0       34.52            0.00         34.52         0.00         0.00
     62.0       34.29            0.00         34.29         0.00         0.00
     58.0       34.04            0.00         34.04         0.00         0.00
     54.0       33.77            0.00         33.77         0.00         0.00
     50.0       33.48            0.00         33.48         0.00         0.00
     46.0       33.18            0.00         33.18         0.00         0.00
     42.0       32.85            0.00         32.85         0.00         0.00
     38.0       32.49            0.00         32.49         0.00         0.00
     34.0       32.09            0.00         32.09         0.00         0.00
     30.0       31.65            0.00         31.65         0.00         0.00


Harvested Random Seeds after Generation of the Random Numbers:

    568385088 K1
            0 K2
