
This summary file was generated by TurbSim (v1.50, 25-Sep-2009) on 28-Nov-2024 at 18:23:03.


Runtime Options:

 365386755  Random seed #1
    RANLUX  Type of random number generator
         F  Output binary HH turbulence parameters?
         F  Output formatted turbulence parameters?
         F  Output AeroDyn HH files?
         T  Output AeroDyn FF files?
         T  Output BLADED FF files?
         F  Output tower data?
         F  Output formatted FF files?
         F  Output coherent turbulence time step file?
         T  Clockwise rotation when looking downwind?
 0 -  NONE  IEC turbulence models scaled to exact specified standard deviation


Turbine/Model Specifications:

        56  Vertical grid-point matrix dimension
        56  Horizontal grid-point matrix dimension
     0.050  Time step [seconds]
   650.000  Analysis time [seconds]
   610.000  Usable output time [seconds]
   140.000  Hub height [m]
   220.000  Grid height [m]
   220.000  Grid width [m]
     0.000  Vertical flow angle [degrees]
     0.000  Horizontal flow angle [degrees]


Meteorological Boundary Conditions:

    IECKAI  IEC Kaimal spectral model
         1  IEC standard: IEC 61400-1 Ed. 3: 2005
         B  IEC turbulence characteristic
      3ETM  IEC Extreme Turbulence Model
     2.000  IEC Extreme Turbulence Model (ETM) "c" parameter [m/s]
       IEC  Wind profile type
   140.000  Reference height [m]
    25.000  Reference wind speed [m/s]
       N/A  Jet height [m]
     0.200  Power law exponent
     0.030  Surface roughness length [m]


You have requested that the following file(s) be generated:

   .\TurbSim.bts (AeroDyn/TurbSim full-field wind file)
   .\TurbSim.wnd (AeroDyn/BLADED full-field wnd file)


Turbulence Simulation Scaling Parameter Summary:

   Turbulence model used                            =  IEC Kaimal
   Turbulence characteristic                        =  3B
   IEC turbulence type                              =  Extreme Turbulence Model
   Reference wind speed average over 10 minutes     =   37.500 m/s
   Annual wind speed average at hub height          =    7.500 m/s
   IEC standard                                     =  IEC 61400-1 Ed. 3: 2005
   Mean wind speed at hub height                    =   25.000 m/s
   Expected value of turbulence intensity at 15 m/s =   14.000%
   Characteristic value of standard deviation       =    3.957 m/s
   Turbulence scale                                 =   42.000 m
   u-component integral scale                       =  340.200 m
   Coherency scale                                  =  340.200 m
   Characteristic value of hub turbulence intensity =   15.827%
   Gradient Richardson number                       =    0.000

   Wind profile type                                =  Power law on rotor disk, logarithmic elsewhere
   Power law exponent                               =    0.200
   Mean shear across rotor disk                     =    0.044 (m/s)/m
   Assumed rotor diameter                           =  220.000 m
   Surface roughness length                         =    0.030 m

   Number of time steps in the FFT                  =    13000
   Number of time steps output                      =    12376


Mean Flow Angles:

   Vertical   =   0.0 degrees
   Horizontal =   0.0 degrees

Mean Wind Speed Profile:

   Height    Wind Speed   Horizontal Angle  U-comp (X)   V-comp (Y)   W-comp (Z)
     (m)        (m/s)         (degrees)       (m/s)        (m/s)        (m/s)   
   ------    ----------   ----------------  ----------   ----------   ----------
    250.0       28.07            0.00         28.07         0.00         0.00
    246.0       27.98            0.00         27.98         0.00         0.00
    242.0       27.89            0.00         27.89         0.00         0.00
    238.0       27.80            0.00         27.80         0.00         0.00
    234.0       27.70            0.00         27.70         0.00         0.00
    230.0       27.61            0.00         27.61         0.00         0.00
    226.0       27.51            0.00         27.51         0.00         0.00
    222.0       27.41            0.00         27.41         0.00         0.00
    218.0       27.32            0.00         27.32         0.00         0.00
    214.0       27.21            0.00         27.21         0.00         0.00
    210.0       27.11            0.00         27.11         0.00         0.00
    206.0       27.01            0.00         27.01         0.00         0.00
    202.0       26.90            0.00         26.90         0.00         0.00
    198.0       26.79            0.00         26.79         0.00         0.00
    194.0       26.69            0.00         26.69         0.00         0.00
    190.0       26.57            0.00         26.57         0.00         0.00
    186.0       26.46            0.00         26.46         0.00         0.00
    182.0       26.35            0.00         26.35         0.00         0.00
    178.0       26.23            0.00         26.23         0.00         0.00
    174.0       26.11            0.00         26.11         0.00         0.00
    170.0       25.99            0.00         25.99         0.00         0.00
    166.0       25.87            0.00         25.87         0.00         0.00
    162.0       25.74            0.00         25.74         0.00         0.00
    158.0       25.61            0.00         25.61         0.00         0.00
    154.0       25.48            0.00         25.48         0.00         0.00
    150.0       25.35            0.00         25.35         0.00         0.00
    146.0       25.21            0.00         25.21         0.00         0.00
    142.0       25.07            0.00         25.07         0.00         0.00
    140.0       25.00            0.00         25.00         0.00         0.00
    138.0       24.93            0.00         24.93         0.00         0.00
    134.0       24.78            0.00         24.78         0.00         0.00
    130.0       24.63            0.00         24.63         0.00         0.00
    126.0       24.48            0.00         24.48         0.00         0.00
    122.0       24.32            0.00         24.32         0.00         0.00
    118.0       24.16            0.00         24.16         0.00         0.00
    114.0       23.99            0.00         23.99         0.00         0.00
    110.0       23.82            0.00         23.82         0.00         0.00
    106.0       23.65            0.00         23.65         0.00         0.00
    102.0       23.47            0.00         23.47         0.00         0.00
     98.0       23.28            0.00         23.28         0.00         0.00
     94.0       23.09            0.00         23.09         0.00         0.00
     90.0       22.89            0.00         22.89         0.00         0.00
     86.0       22.68            0.00         22.68         0.00         0.00
     82.0       22.46            0.00         22.46         0.00         0.00
     78.0       22.24            0.00         22.24         0.00         0.00
     74.0       22.01            0.00         22.01         0.00         0.00
     70.0       21.76            0.00         21.76         0.00         0.00
     66.0       21.51            0.00         21.51         0.00         0.00
     62.0       21.24            0.00         21.24         0.00         0.00
     58.0       20.96            0.00         20.96         0.00         0.00
     54.0       20.66            0.00         20.66         0.00         0.00
     50.0       20.35            0.00         20.35         0.00         0.00
     46.0       20.01            0.00         20.01         0.00         0.00
     42.0       19.65            0.00         19.65         0.00         0.00
     38.0       19.26            0.00         19.26         0.00         0.00
     34.0       18.84            0.00         18.84         0.00         0.00
     30.0       18.37            0.00         18.37         0.00         0.00


Harvested Random Seeds after Generation of the Random Numbers:

    568385088 K1
            0 K2


Hub-Height Simulated Turbulence Statistical Summary:

   Type of Wind        Min (m/s)   Mean (m/s)    Max (m/s)  Sigma (m/s)       TI (%)
   ----------------    ---------   ----------    ---------  -----------       ------
   Longitudinal (u)        13.48        25.00        38.37        4.145       16.578
   Lateral (v)            -10.52         0.00        10.82        3.105       12.421
   Vertical (w)            -7.56         0.00         8.35        1.914        7.657
   U component             13.48        25.00        38.37        4.145       16.578
   V component            -10.52         0.00        10.82        3.105       12.421
   W component             -7.56         0.00         8.35        1.914        7.657
   Horizontal (U&V)        13.48        25.19        38.72        4.130       16.394
   Total                   13.55        25.27        38.74        4.123       16.315

                       Min Reynolds     Mean Reynolds    Max Reynolds    Correlation
   Product             Stress (m/s)^2   Stress (m/s)^2   Stress (m/s)^2  Coefficient
   ----------------    --------------   --------------   --------------  -----------
   u'w'                    -54.716             0.354            47.613         0.045
   u'v'                    -68.013             0.349            90.549         0.027
   v'w'                    -45.323            -0.514            36.496        -0.086


   Friction Velocity (Ustar)  =      0.595 m/s
   Maximum Instantaneous TKE  =    103.528 (m/s)^2
   Maximum Instantaneous CTKE =     47.010 (m/s)^2


Grid Point Variance Summary:

   Y-coord -110.00 -106.00 -102.00  -98.00  -94.00  -90.00  -86.00  -82.00  -78.00  -74.00  -70.00  -66.00  -62.00  -58.00  -54.00  -50.00  -46.00  -42.00  -38.00  -34.00  -30.00  -26.00  -22.00  -18.00  -14.00  -10.00   -6.00   -2.00    2.00    6.00   10.00   14.00   18.00   22.00   26.00   30.00   34.00   38.00   42.00   46.00   50.00   54.00   58.00   62.00   66.00   70.00   74.00   78.00   82.00   86.00   90.00   94.00   98.00  102.00  106.00  110.00

   Height   Standard deviation at grid points for the u component:
   250.00    4.154   4.198   4.191   4.060   4.038   3.928   3.853   3.772   3.800   3.853   3.954   3.847   3.790   3.951   3.948   3.896   3.948   3.929   4.110   4.231   4.268   4.326   4.269   4.185   4.151   4.248   4.186   4.040   3.976   3.988   3.940   3.994   4.071   4.074   4.065   4.053   3.914   3.850   4.033   3.993   3.877   4.000   3.940   3.917   3.932   3.878   3.821   3.786   3.727   3.752   3.785   3.773   3.875   3.730   3.734   3.682
   246.00    4.217   4.070   4.083   4.097   4.026   3.835   3.871   3.792   3.795   3.812   3.829   3.771   3.806   3.925   3.894   3.949   3.823   3.963   4.060   4.320   4.346   4.485   4.243   4.152   4.150   4.169   4.080   4.087   3.934   3.867   3.915   3.928   4.011   4.216   4.151   4.047   3.895   3.829   3.983   3.970   3.910   3.928   3.836   3.811   3.941   3.881   3.872   3.898   3.665   3.788   3.725   3.774   3.861   3.730   3.742   3.751
   242.00    4.233   4.120   4.024   4.053   4.081   4.007   3.948   3.865   3.780   3.733   3.693   3.772   3.797   3.964   4.013   3.950   4.006   3.991   4.007   4.161   4.333   4.401   4.277   4.264   4.220   4.269   4.036   4.005   3.811   3.682   3.927   3.999   4.014   4.224   4.279   4.140   3.879   3.952   3.881   3.973   3.858   3.939   3.906   3.885   3.993   3.812   3.931   3.953   3.694   3.791   3.841   3.753   3.658   3.750   3.667   3.779
   238.00    4.101   4.014   3.934   3.840   3.905   3.977   3.966   3.852   3.798   3.801   3.751   3.711   3.768   3.873   3.909   4.031   4.091   4.019   4.110   4.181   4.169   4.144   4.146   4.038   4.156   4.183   4.068   3.896   3.879   3.868   3.905   3.882   4.024   4.176   4.154   3.863   3.937   3.964   3.899   3.886   3.903   3.895   3.862   3.853   3.757   3.808   3.829   3.888   3.830   3.639   3.765   3.780   3.645   3.601   3.654   3.768
   234.00    4.028   3.984   3.864   3.835   3.956   3.975   4.002   3.909   3.953   3.824   3.844   3.903   3.799   3.818   3.845   3.961   3.829   3.979   3.984   3.992   4.015   4.084   4.071   4.102   4.282   4.213   4.165   3.949   3.875   3.978   4.020   3.979   4.064   3.985   4.014   3.817   3.814   4.047   4.101   4.029   3.925   3.899   3.837   3.731   3.756   3.821   3.823   3.738   3.773   3.775   3.941   3.717   3.711   3.797   3.685   3.778
   230.00    4.146   4.074   4.045   3.964   3.968   4.044   3.971   3.917   3.909   3.888   3.843   3.811   3.809   3.798   3.927   4.035   3.906   3.895   3.970   4.059   3.927   3.960   4.035   4.106   4.201   4.182   4.188   4.019   3.936   4.103   4.013   4.000   3.961   3.939   3.956   3.835   3.985   4.071   4.008   4.219   4.112   3.862   3.878   3.840   3.877   3.767   3.726   3.808   3.584   3.684   3.857   3.741   3.645   3.605   3.642   3.759
   226.00    4.201   4.194   4.007   4.012   4.061   4.156   4.073   3.928   4.042   3.931   3.892   3.873   3.832   3.782   4.027   4.082   4.087   4.009   3.965   4.046   4.008   4.031   3.972   4.090   3.971   4.115   4.138   4.007   3.985   4.068   3.912   3.964   3.857   3.901   3.956   3.878   3.935   4.097   3.992   4.261   4.055   4.014   3.936   4.071   3.950   3.789   3.618   3.696   3.808   3.840   3.809   3.766   3.723   3.672   3.667   3.706
   222.00    4.119   4.036   3.894   3.846   4.173   4.232   4.087   3.873   3.860   3.989   3.979   3.976   3.838   3.918   4.054   4.103   3.993   3.973   4.018   4.076   4.042   4.027   3.942   3.921   4.062   4.070   4.033   4.034   4.020   4.049   3.996   3.946   3.879   3.911   4.024   3.969   4.045   4.081   4.110   4.128   4.213   4.126   4.063   3.964   3.926   3.885   3.715   3.692   3.737   3.823   3.843   3.726   3.770   3.740   3.726   3.670
   218.00    3.860   3.938   3.863   3.907   4.031   4.190   4.049   4.077   3.940   4.050   3.944   3.837   3.913   3.979   3.940   4.146   4.147   4.119   4.120   4.131   4.065   4.059   3.942   4.065   4.124   4.021   4.064   4.041   3.921   3.999   3.945   4.004   4.014   4.126   3.997   3.987   4.104   4.183   4.071   4.109   4.220   4.133   4.140   4.130   3.982   3.805   3.803   3.688   3.719   3.795   3.665   3.720   3.818   3.773   3.870   3.689
   214.00    3.855   3.868   3.987   4.177   4.196   4.100   4.227   4.113   4.003   4.091   4.038   4.000   4.012   4.012   3.942   3.883   3.984   4.029   4.144   4.093   4.097   4.097   4.007   3.980   4.016   3.940   4.098   4.015   4.010   3.931   3.886   4.123   4.107   4.102   3.910   4.034   4.008   4.147   4.092   4.014   4.022   4.170   4.148   4.148   3.876   3.873   3.932   3.847   3.888   3.850   3.758   3.849   3.856   3.814   3.734   3.870
   210.00    3.808   3.833   3.958   4.057   4.130   4.101   4.062   3.997   4.021   3.977   4.029   3.960   3.881   3.916   3.889   3.803   3.841   3.988   4.016   3.945   4.067   4.023   4.025   3.938   4.061   4.097   4.042   4.147   4.029   3.987   3.859   4.040   4.053   4.185   4.068   4.005   3.989   4.132   4.050   3.964   4.004   4.029   4.091   4.076   3.978   3.864   3.796   3.854   3.928   3.883   3.828   3.968   3.851   3.734   3.758   3.764
   206.00    3.936   3.792   3.909   4.063   4.035   4.082   3.990   4.086   4.033   4.035   3.858   3.821   3.816   3.774   3.909   3.847   3.881   3.837   3.845   3.884   3.847   4.033   4.010   4.025   3.977   4.000   4.045   4.151   4.013   3.955   3.934   3.942   4.165   4.269   4.155   4.112   4.103   4.109   4.155   4.001   3.956   4.004   4.090   4.076   3.975   3.718   3.710   3.801   3.925   3.786   3.777   3.684   3.743   3.739   3.744   3.762
   202.00    3.782   3.773   3.766   3.773   3.993   4.007   4.029   3.895   3.934   3.794   3.751   3.835   3.754   3.729   3.995   3.886   3.933   3.849   3.716   3.836   3.928   3.946   3.924   3.819   3.699   3.950   4.037   4.240   4.176   3.981   3.945   4.056   4.058   4.175   4.060   3.985   4.072   4.140   4.170   3.914   3.843   3.946   3.956   3.977   3.913   3.801   3.895   3.818   3.853   3.893   3.738   3.719   3.722   3.598   3.595   3.583
   198.00    3.838   3.631   3.729   3.770   4.012   4.026   3.891   3.809   3.827   3.629   3.691   3.740   3.780   3.723   3.850   3.881   3.850   3.884   3.650   3.719   3.776   3.817   3.799   3.981   3.878   3.892   3.973   4.060   4.099   4.065   4.033   3.996   4.036   4.104   3.995   3.989   4.002   4.059   4.088   3.944   3.908   3.894   3.993   3.850   3.776   3.773   3.792   3.793   3.813   3.854   3.785   3.610   3.600   3.555   3.567   3.587
   194.00    3.812   3.762   3.882   4.029   4.021   4.005   3.928   3.775   3.711   3.682   3.772   3.668   3.844   3.812   3.775   3.791   3.727   3.835   3.635   3.646   3.737   3.785   3.849   3.878   3.811   3.897   3.893   4.126   4.217   4.072   4.034   3.925   4.064   4.086   4.039   3.923   3.818   3.948   4.092   3.937   3.962   3.994   4.002   4.001   3.853   3.733   3.836   3.804   3.785   3.881   3.846   3.683   3.768   3.684   3.697   3.668
   190.00    3.917   3.786   3.918   3.917   3.987   4.102   4.011   3.873   3.798   3.656   3.668   3.718   3.619   3.848   3.746   3.811   3.699   3.704   3.571   3.640   3.658   3.663   3.875   3.961   4.004   3.979   4.096   4.042   4.174   4.010   4.055   4.043   4.018   3.987   3.876   3.909   3.895   3.852   3.911   3.893   3.896   4.054   3.916   4.016   3.821   3.732   3.758   3.634   3.854   3.872   3.854   3.677   3.796   3.846   3.745   3.730
   186.00    4.040   3.866   3.896   3.839   3.934   4.019   3.987   3.896   3.870   3.679   3.453   3.579   3.645   3.837   3.819   3.738   3.572   3.425   3.680   3.680   3.599   3.687   3.787   3.775   3.873   3.936   4.025   4.097   4.045   4.012   3.927   3.923   4.013   3.919   4.014   4.006   3.864   3.826   3.790   3.880   4.027   3.899   3.905   3.886   3.956   3.922   3.795   3.851   3.728   3.698   3.566   3.656   3.719   3.772   3.794   3.712
   182.00    3.899   3.867   3.890   3.972   4.018   3.953   3.933   3.774   3.783   3.673   3.617   3.607   3.741   3.911   3.900   3.810   3.734   3.551   3.740   3.712   3.694   3.732   3.788   3.736   3.885   3.936   3.891   4.019   3.974   4.110   4.004   3.945   4.040   4.040   4.047   3.972   3.893   3.882   3.825   3.985   3.985   3.859   3.774   3.920   3.932   3.880   3.817   3.826   3.597   3.599   3.676   3.630   3.729   3.784   3.842   3.803
   178.00    3.897   3.846   3.856   3.984   3.908   3.915   3.829   3.824   3.912   3.897   3.838   3.829   3.954   3.966   3.808   3.812   3.685   3.656   3.747   3.743   3.668   3.821   3.886   3.762   3.877   3.917   3.934   3.994   4.137   4.117   4.177   3.971   3.974   4.052   4.119   4.047   4.015   3.968   3.945   3.995   4.102   4.046   3.920   3.990   3.907   3.987   3.862   3.781   3.562   3.601   3.598   3.734   3.816   3.993   3.922   3.918
   174.00    3.771   3.877   3.823   3.819   3.859   3.964   4.038   3.966   4.004   3.932   3.828   3.868   3.924   3.856   3.725   3.738   3.598   3.691   3.734   3.777   3.826   3.816   3.844   3.731   3.663   3.778   3.894   3.989   3.962   4.101   4.148   4.023   4.108   4.160   4.239   4.152   4.160   3.933   4.108   3.994   4.201   4.117   4.108   3.978   3.977   3.886   3.877   3.812   3.632   3.688   3.730   3.753   3.805   3.952   3.990   3.883
   170.00    3.967   4.058   3.931   3.900   3.838   3.846   4.015   4.101   4.111   3.941   3.844   3.907   3.821   3.730   3.716   3.742   3.588   3.703   3.849   3.823   3.897   3.944   3.941   3.780   3.770   3.824   3.991   3.899   3.977   4.058   4.001   4.109   4.190   4.108   4.287   4.214   4.196   4.170   4.099   4.190   4.115   3.980   3.912   3.967   3.879   3.943   3.991   3.855   3.771   3.733   3.699   3.721   3.943   4.008   3.986   3.837
   166.00    3.935   3.875   3.858   3.741   3.971   4.059   4.083   4.075   4.066   3.999   3.862   3.878   3.755   3.668   3.677   3.709   3.582   3.681   3.805   3.845   3.951   3.875   3.995   3.958   4.044   3.852   3.961   3.948   4.003   4.061   4.064   4.079   4.168   4.147   4.197   4.344   4.216   4.094   4.168   4.165   4.060   4.034   4.100   3.964   3.952   3.988   4.005   3.874   3.831   3.879   3.785   3.756   3.804   3.857   3.857   3.888
   162.00    4.031   4.015   3.908   3.962   3.944   4.008   4.091   4.035   3.933   4.003   3.851   3.805   3.639   3.674   3.631   3.581   3.598   3.731   3.691   3.908   3.861   3.968   3.967   4.015   3.940   3.924   3.899   3.949   3.998   3.944   4.140   4.240   4.140   4.296   4.210   4.242   4.142   4.116   4.136   4.095   4.124   4.089   4.141   4.059   4.079   4.143   3.894   3.854   3.849   3.901   3.921   3.800   3.775   3.764   3.655   3.694
   158.00    3.978   3.901   3.970   3.956   4.001   3.987   4.095   4.056   4.018   3.965   3.902   3.896   3.731   3.596   3.652   3.757   3.706   3.775   3.844   3.851   3.776   4.006   3.951   3.965   3.863   4.025   4.007   4.082   4.113   4.127   4.159   4.184   4.159   4.032   4.189   4.252   4.095   4.065   4.094   4.099   4.099   4.210   4.093   3.995   4.063   4.061   3.876   3.888   3.809   3.860   3.923   3.693   3.755   3.782   3.856   3.749
   154.00    4.052   3.875   3.828   3.960   3.983   3.957   4.095   4.023   4.067   4.027   4.038   3.937   3.888   3.744   3.793   3.777   3.835   3.942   3.830   3.968   4.110   4.027   4.024   4.033   3.911   4.060   4.128   4.125   4.092   4.195   4.084   3.995   4.048   3.946   4.059   4.144   4.126   4.120   4.193   4.046   4.154   4.101   4.005   4.117   4.025   4.002   3.936   3.840   3.743   3.815   3.873   3.893   3.933   3.872   3.958   3.849
   150.00    3.985   3.917   3.847   4.094   4.002   3.883   4.101   4.154   4.241   4.189   4.069   3.948   3.967   3.843   3.943   3.888   3.881   4.051   3.941   3.989   4.132   4.066   4.080   3.919   3.978   4.097   3.987   4.043   4.200   4.097   4.040   3.968   3.826   3.906   4.074   4.061   3.908   3.937   4.065   3.985   3.979   4.075   4.094   3.992   4.086   3.989   3.905   3.913   3.814   3.860   3.965   3.966   3.945   3.941   4.045   3.941
   146.00    4.110   3.947   4.055   4.078   4.040   3.999   4.049   4.185   4.371   4.239   4.051   3.937   3.834   3.798   3.915   4.041   4.078   4.139   4.042   4.088   4.079   3.915   3.940   4.079   3.985   4.199   4.155   4.102   4.122   4.117   4.031   4.031   3.801   3.917   3.916   4.108   3.917   3.928   3.989   3.975   3.988   3.966   3.981   4.057   4.077   3.969   4.038   4.006   3.904   3.934   4.003   3.938   4.027   4.044   3.962   4.103
   142.00    4.175   4.104   4.108   4.151   4.094   4.027   4.045   4.110   4.136   4.111   4.186   3.862   3.857   3.852   4.009   4.086   4.087   4.004   4.042   4.009   3.852   3.782   3.888   4.040   4.096   4.116   4.108   4.056   4.138   4.161   4.103   4.134   4.066   3.994   3.944   3.976   4.023   3.979   3.918   3.981   4.023   3.934   3.894   4.105   4.036   4.100   4.073   4.083   4.186   4.093   4.006   4.019   4.020   4.014   4.126   4.114
   138.00    4.006   4.010   4.022   3.960   3.963   4.068   4.197   4.058   4.069   4.068   3.989   3.933   3.857   3.876   3.930   4.042   4.114   4.103   3.963   3.961   3.844   3.873   4.028   4.064   4.061   3.995   4.097   4.026   4.180   4.264   4.267   4.209   4.157   4.009   3.984   3.986   3.996   4.136   3.971   4.080   3.899   3.993   3.993   3.983   4.041   4.026   4.079   4.081   4.128   4.168   4.022   3.956   4.062   4.097   3.974   3.979
   134.00    3.854   3.885   3.919   3.988   4.106   3.997   4.007   4.045   4.040   4.158   4.049   4.036   4.027   3.885   3.877   4.055   4.139   4.063   3.918   3.861   4.020   3.859   3.949   4.021   3.935   3.882   3.885   4.058   4.172   4.259   4.153   4.220   4.108   4.064   4.060   4.023   4.023   4.078   3.957   3.994   3.896   4.013   3.832   3.903   4.075   3.986   3.988   4.065   4.135   4.083   4.091   3.966   3.963   4.066   4.038   3.953
   130.00    3.896   3.815   3.907   4.080   3.884   3.886   3.879   3.944   3.898   3.982   4.098   4.114   4.067   3.893   3.920   3.978   4.058   4.058   3.906   3.952   3.940   3.825   3.926   3.768   3.816   3.873   3.848   3.935   4.157   4.111   3.937   3.959   3.941   3.953   4.121   4.058   3.983   3.929   3.930   3.900   3.867   3.870   3.860   3.985   3.903   3.881   4.025   4.136   4.187   4.173   4.105   4.049   4.004   4.074   4.052   3.851
   126.00    3.861   3.852   3.927   3.898   3.873   3.752   3.851   3.811   3.864   4.055   4.045   4.097   3.974   3.919   4.062   4.072   3.972   4.021   3.869   3.976   3.794   3.878   3.870   3.746   3.868   3.946   3.828   3.923   4.012   4.116   3.980   3.950   3.967   3.982   3.896   3.839   3.945   3.895   3.904   4.021   3.869   3.815   3.937   4.101   3.941   4.047   4.215   4.232   4.222   4.174   4.077   4.059   3.907   4.013   3.947   3.935
   122.00    3.880   3.877   3.911   3.855   3.855   3.751   3.788   3.924   3.878   4.037   4.117   4.041   3.886   4.038   3.998   4.013   3.904   3.919   3.886   3.834   3.771   3.884   3.874   3.790   3.807   3.907   3.887   3.849   3.998   3.907   3.898   3.948   3.984   3.919   4.012   4.066   3.886   3.968   3.890   3.924   3.940   3.884   4.091   4.042   4.057   4.105   4.165   4.365   4.289   4.172   4.199   4.174   4.044   4.103   4.030   3.872
   118.00    4.014   3.819   3.884   3.766   3.749   3.633   3.854   3.924   3.912   4.080   3.984   3.915   3.968   3.902   3.927   3.953   3.905   3.729   3.775   3.846   3.769   3.776   3.690   3.769   3.740   3.952   3.784   3.824   3.822   3.652   3.761   3.832   4.003   3.932   4.006   4.075   3.906   3.940   3.964   3.882   4.024   4.024   3.908   3.996   4.020   4.005   4.024   4.116   4.232   3.972   3.989   4.013   4.121   4.105   4.100   4.050
   114.00    4.080   3.911   3.958   3.757   3.667   3.762   3.756   3.938   3.848   4.032   4.011   3.932   3.995   3.896   3.999   4.013   3.879   3.686   3.826   3.734   3.748   3.703   3.632   3.739   3.833   3.892   3.868   3.735   3.718   3.613   3.740   3.860   4.068   4.105   3.943   3.911   3.896   3.943   3.880   3.941   3.884   3.867   3.789   3.856   3.948   4.017   3.925   4.144   4.085   4.076   4.067   4.031   4.014   4.110   4.049   3.936
   110.00    4.196   4.124   4.023   3.847   3.772   3.671   3.742   3.877   4.097   3.986   4.021   3.887   3.996   3.970   3.958   3.988   3.870   3.674   3.763   3.768   3.772   3.724   3.732   3.552   3.716   3.744   3.802   3.768   3.741   3.734   3.813   4.016   4.056   4.223   4.093   3.914   3.896   3.868   4.015   4.046   3.934   3.869   3.803   3.752   3.914   3.868   3.973   3.996   4.057   4.003   4.082   4.085   4.145   4.151   3.925   3.806
   106.00    4.329   4.201   4.180   3.981   3.928   3.703   3.781   3.816   4.002   4.026   3.942   3.893   3.951   3.890   3.937   3.863   3.856   3.735   3.781   3.768   3.718   3.651   3.622   3.652   3.704   3.643   3.688   3.663   3.766   3.785   3.843   4.037   4.121   4.120   4.074   3.985   3.953   3.948   4.054   3.985   3.903   3.810   3.734   3.657   3.832   3.864   3.813   3.767   3.868   4.023   4.020   4.018   3.958   4.042   4.039   3.972
   102.00    4.421   4.203   4.141   4.071   4.015   3.854   3.840   3.691   3.838   3.942   3.967   3.887   3.972   3.969   4.006   3.778   3.770   3.687   3.658   3.799   3.602   3.623   3.698   3.716   3.649   3.515   3.608   3.728   3.814   3.755   3.864   4.098   4.221   4.197   4.103   4.006   4.020   4.063   4.057   3.884   3.838   3.832   3.697   3.538   3.553   3.703   3.762   3.721   3.861   3.820   3.853   3.844   3.955   3.821   3.773   3.707
    98.00    4.312   4.303   4.266   4.152   4.038   4.133   3.869   3.738   3.811   3.935   3.832   3.930   3.928   3.894   3.940   3.796   3.792   3.704   3.764   3.611   3.604   3.698   3.711   3.802   3.737   3.686   3.772   3.853   3.756   3.916   4.004   4.193   4.268   4.182   4.075   4.102   4.164   4.153   3.931   3.858   3.823   3.698   3.701   3.611   3.621   3.650   3.766   3.737   3.946   3.856   3.822   3.778   3.666   3.704   3.697   3.689
    94.00    4.245   4.047   4.054   4.077   4.069   4.131   3.928   3.838   3.897   3.780   3.781   3.998   3.855   3.868   3.697   3.694   3.612   3.684   3.805   3.639   3.646   3.652   3.628   3.672   3.753   3.905   3.884   3.946   3.898   4.049   4.083   4.164   4.266   4.247   4.185   4.157   4.207   4.101   4.041   4.067   3.870   3.795   3.651   3.698   3.620   3.615   3.635   3.800   3.795   3.829   3.696   3.727   3.617   3.582   3.692   3.670
    90.00    4.157   3.990   3.895   3.951   4.028   4.011   4.036   3.941   3.828   3.836   3.947   4.174   3.964   3.794   3.817   3.818   3.737   3.739   3.703   3.702   3.767   3.886   3.741   3.736   3.704   3.861   3.983   4.067   4.067   4.161   4.123   4.155   4.273   4.189   4.188   4.174   4.133   4.128   4.153   3.999   3.957   3.871   3.633   3.509   3.532   3.542   3.627   3.675   3.595   3.621   3.804   3.735   3.716   3.660   3.660   3.553
    86.00    3.998   4.015   3.989   4.011   4.055   4.024   4.027   3.881   3.911   3.976   3.981   4.074   3.985   3.847   3.894   3.802   3.791   3.773   3.790   3.822   3.858   3.941   3.888   3.818   3.824   3.876   4.097   4.157   4.098   4.070   4.150   4.189   4.241   4.157   3.988   4.107   4.167   4.166   4.136   4.094   3.869   3.743   3.742   3.555   3.678   3.558   3.594   3.666   3.682   3.643   3.760   3.758   3.647   3.521   3.475   3.442
    82.00    4.111   4.034   4.062   4.056   4.132   4.129   3.977   3.863   3.892   3.831   3.911   3.896   3.966   3.889   3.929   3.960   3.843   3.893   3.808   3.797   3.881   3.846   3.822   3.860   3.777   3.912   4.117   4.050   4.048   4.140   4.308   4.237   4.310   4.199   4.033   4.054   4.139   4.134   3.962   3.924   3.911   3.806   3.702   3.699   3.753   3.575   3.671   3.707   3.842   3.781   3.776   3.589   3.684   3.365   3.454   3.448
    78.00    4.173   4.181   4.066   4.044   3.980   3.969   4.004   3.953   3.953   3.900   3.812   3.856   3.958   3.870   3.805   3.972   3.954   3.918   3.834   3.811   3.853   4.006   3.955   3.986   3.842   3.922   3.957   3.931   4.123   4.191   4.235   4.286   4.154   4.198   4.166   4.168   4.075   3.927   3.938   3.957   3.929   3.777   3.591   3.579   3.687   3.623   3.646   3.774   3.844   3.729   3.757   3.663   3.599   3.430   3.490   3.462
    74.00    4.160   4.125   4.110   3.854   4.013   3.917   3.969   3.792   3.834   3.936   3.899   3.824   3.807   3.863   3.902   4.012   4.044   3.956   3.777   3.735   3.800   3.797   3.867   3.998   3.959   4.009   3.962   4.052   4.012   4.048   4.190   4.273   4.223   4.252   4.225   4.144   4.068   3.867   3.767   3.844   3.997   3.872   3.680   3.797   3.805   3.639   3.702   3.764   3.740   3.724   3.745   3.569   3.640   3.586   3.563   3.528
    70.00    4.189   4.050   4.048   4.045   4.034   3.873   3.779   3.869   3.819   3.841   3.766   3.938   3.898   3.936   4.028   3.855   3.974   3.930   3.929   3.815   3.874   3.859   3.845   3.920   3.910   4.027   3.941   3.944   3.976   4.077   4.069   4.211   4.249   4.209   4.239   4.164   4.085   3.978   3.867   3.857   3.887   3.942   3.712   3.738   3.823   3.761   3.687   3.742   3.682   3.571   3.574   3.568   3.591   3.569   3.708   3.534
    66.00    4.205   4.131   4.103   4.190   4.185   3.998   3.948   3.837   3.856   3.844   3.928   3.975   4.029   4.032   4.111   3.941   4.086   3.950   3.894   3.847   3.784   3.783   3.820   3.918   4.020   3.947   3.952   3.986   4.074   4.169   4.260   4.204   4.099   4.119   4.133   4.193   4.098   4.112   4.003   3.926   3.916   4.046   3.831   3.708   3.735   3.822   3.900   3.726   3.720   3.634   3.574   3.663   3.613   3.641   3.519   3.502
    62.00    4.181   3.957   4.156   4.155   4.091   4.060   4.009   3.930   4.013   4.033   3.985   4.013   4.122   4.157   4.106   4.164   4.121   3.966   3.924   3.800   3.798   3.761   3.782   3.979   4.086   3.915   3.865   4.048   4.037   4.093   4.192   4.104   3.998   4.047   4.046   4.142   3.959   4.031   3.913   4.032   3.997   3.899   3.816   3.762   3.922   3.806   3.815   3.742   3.671   3.654   3.649   3.715   3.620   3.591   3.618   3.511
    58.00    4.119   4.043   4.013   4.148   3.983   4.099   4.051   3.978   4.092   4.103   4.191   4.191   4.118   4.143   4.131   4.047   4.147   4.110   3.903   3.816   3.788   3.742   3.793   3.966   3.988   4.019   3.977   3.872   3.988   4.108   4.122   4.004   3.969   4.061   4.019   4.048   4.010   4.077   4.015   4.029   4.076   3.960   3.985   3.936   3.912   3.859   3.799   3.785   3.749   3.625   3.558   3.633   3.574   3.520   3.560   3.463
    54.00    3.991   3.869   3.952   4.040   3.987   4.015   4.051   4.007   3.997   4.094   4.110   4.119   4.063   4.239   4.214   4.109   4.005   4.006   3.893   3.805   3.783   3.761   3.861   3.897   3.875   3.710   3.981   3.943   4.018   4.099   4.144   3.962   3.895   4.000   4.006   3.977   3.927   4.059   4.177   4.075   4.025   4.047   3.983   3.993   4.011   4.039   3.927   3.918   3.795   3.687   3.675   3.694   3.563   3.595   3.571   3.485
    50.00    3.950   3.924   4.039   4.094   4.065   4.122   4.137   4.220   4.002   3.988   4.041   4.011   4.059   4.201   4.179   4.120   4.164   3.940   3.829   3.823   3.942   3.905   3.873   3.913   3.860   3.834   3.846   3.915   4.026   4.051   4.044   4.015   3.902   3.877   4.012   3.977   4.137   4.201   4.094   4.159   4.048   4.038   3.925   3.824   3.776   3.912   3.891   3.856   3.943   3.747   3.694   3.684   3.660   3.566   3.588   3.590
    46.00    3.984   4.050   3.984   4.098   4.207   4.162   4.092   4.126   4.050   3.958   4.002   3.845   3.831   3.946   4.006   4.098   4.112   3.969   3.816   3.859   3.994   3.961   3.843   3.750   3.930   3.872   3.803   3.789   3.946   4.024   3.985   3.967   3.945   4.033   4.094   4.070   4.137   4.267   4.126   4.085   4.006   3.933   3.866   3.826   3.734   3.798   3.863   3.961   3.867   3.814   3.555   3.460   3.501   3.616   3.450   3.640
    42.00    4.176   4.101   3.975   3.992   4.225   4.226   4.169   3.990   3.902   3.857   4.043   3.942   3.810   3.853   3.879   4.021   4.025   4.011   3.983   3.994   3.914   3.905   3.776   3.895   3.920   3.817   3.853   3.913   3.942   3.981   3.973   3.834   4.084   4.104   4.178   4.160   4.197   4.070   4.041   3.966   3.967   4.036   4.001   3.844   3.848   3.886   3.898   3.910   3.732   3.781   3.572   3.477   3.491   3.650   3.552   3.469
    38.00    4.126   4.053   3.992   4.068   4.178   4.106   3.944   3.972   4.015   3.881   3.866   3.919   3.799   3.869   3.773   3.935   3.898   3.931   3.897   3.844   3.835   3.769   3.853   3.993   3.964   3.851   3.923   3.953   3.940   4.021   4.002   3.894   3.994   4.077   4.126   4.128   4.181   4.068   3.921   3.764   3.935   3.955   4.008   3.872   4.050   3.935   3.904   3.789   3.652   3.489   3.499   3.471   3.548   3.592   3.574   3.498
    34.00    3.922   4.043   3.941   3.925   4.016   4.024   3.968   3.948   3.950   3.800   3.847   3.756   3.816   3.675   3.739   3.884   3.929   3.892   3.920   3.867   3.885   3.857   3.929   4.042   4.010   3.921   3.903   3.992   3.925   4.106   4.013   3.889   3.991   3.926   3.949   4.089   4.077   4.039   3.968   3.822   3.966   3.967   3.937   3.877   4.012   3.960   3.861   3.784   3.701   3.584   3.687   3.592   3.534   3.557   3.519   3.542
    30.00    3.853   3.908   3.945   3.751   3.834   3.767   3.716   3.906   3.921   3.763   3.842   3.686   3.616   3.495   3.546   3.756   3.866   4.008   3.892   3.872   3.830   3.729   3.922   4.057   4.017   4.023   3.932   4.025   4.086   4.006   3.902   3.930   3.857   3.821   3.906   3.899   3.873   3.866   3.872   3.826   3.985   3.894   3.983   3.900   4.041   3.898   3.814   3.809   3.812   3.741   3.738   3.701   3.682   3.719   3.507   3.502

   Height   Standard deviation at grid points for the v component:
   250.00    3.105   3.105   3.105   3.105   3.105   3.105   3.105   3.105   3.105   3.105   3.105   3.105   3.105   3.105   3.105   3.105   3.105   3.105   3.105   3.105   3.105   3.105   3.105   3.105   3.105   3.105   3.105   3.105   3.105   3.105   3.105   3.105   3.105   3.105   3.105   3.105   3.105   3.105   3.105   3.105   3.105   3.105   3.105   3.105   3.105   3.105   3.105   3.105   3.105   3.105   3.105   3.105   3.105   3.105   3.105   3.105
   246.00    3.105   3.105   3.105   3.105   3.105   3.105   3.105   3.105   3.105   3.105   3.105   3.105   3.105   3.105   3.105   3.105   3.105   3.105   3.105   3.105   3.105   3.105   3.105   3.105   3.105   3.105   3.105   3.105   3.105   3.105   3.105   3.105   3.105   3.105   3.105   3.105   3.105   3.105   3.105   3.105   3.105   3.105   3.105   3.105   3.105   3.105   3.105   3.105   3.105   3.105   3.105   3.105   3.105   3.105   3.105   3.105
   242.00    3.105   3.105   3.105   3.105   3.105   3.105   3.105   3.105   3.105   3.105   3.105   3.105   3.105   3.105   3.105   3.105   3.105   3.105   3.105   3.105   3.105   3.105   3.105   3.105   3.105   3.105   3.105   3.105   3.105   3.105   3.105   3.105   3.105   3.105   3.105   3.105   3.105   3.105   3.105   3.105   3.105   3.105   3.105   3.105   3.105   3.105   3.105   3.105   3.105   3.105   3.105   3.105   3.105   3.105   3.105   3.105
   238.00    3.105   3.105   3.105   3.105   3.105   3.105   3.105   3.105   3.105   3.105   3.105   3.105   3.105   3.105   3.105   3.105   3.105   3.105   3.105   3.105   3.105   3.105   3.105   3.105   3.105   3.105   3.105   3.105   3.105   3.105   3.105   3.105   3.105   3.105   3.105   3.105   3.105   3.105   3.105   3.105   3.105   3.105   3.105   3.105   3.105   3.105   3.105   3.105   3.105   3.105   3.105   3.105   3.105   3.105   3.105   3.105
   234.00    3.105   3.105   3.105   3.105   3.105   3.105   3.105   3.105   3.105   3.105   3.105   3.105   3.105   3.105   3.105   3.105   3.105   3.105   3.105   3.105   3.105   3.105   3.105   3.105   3.105   3.105   3.105   3.105   3.105   3.105   3.105   3.105   3.105   3.105   3.105   3.105   3.105   3.105   3.105   3.105   3.105   3.105   3.105   3.105   3.105   3.105   3.105   3.105   3.105   3.105   3.105   3.105   3.105   3.105   3.105   3.105
   230.00    3.105   3.105   3.105   3.105   3.105   3.105   3.105   3.105   3.105   3.105   3.105   3.105   3.105   3.105   3.105   3.105   3.105   3.105   3.105   3.105   3.105   3.105   3.105   3.105   3.105   3.105   3.105   3.105   3.105   3.105   3.105   3.105   3.105   3.105   3.105   3.105   3.105   3.105   3.105   3.105   3.105   3.105   3.105   3.105   3.105   3.105   3.105   3.105   3.105   3.105   3.105   3.105   3.105   3.105   3.105   3.105
   226.00    3.105   3.105   3.105   3.105   3.105   3.105   3.105   3.105   3.105   3.105   3.105   3.105   3.105   3.105   3.105   3.105   3.105   3.105   3.105   3.105   3.105   3.105   3.105   3.105   3.105   3.105   3.105   3.105   3.105   3.105   3.105   3.105   3.105   3.105   3.105   3.105   3.105   3.105   3.105   3.105   3.105   3.105   3.105   3.105   3.105   3.105   3.105   3.105   3.105   3.105   3.105   3.105   3.105   3.105   3.105   3.105
   222.00    3.105   3.105   3.105   3.105   3.105   3.105   3.105   3.105   3.105   3.105   3.105   3.105   3.105   3.105   3.105   3.105   3.105   3.105   3.105   3.105   3.105   3.105   3.105   3.105   3.105   3.105   3.105   3.105   3.105   3.105   3.105   3.105   3.105   3.105   3.105   3.105   3.105   3.105   3.105   3.105   3.105   3.105   3.105   3.105   3.105   3.105   3.105   3.105   3.105   3.105   3.105   3.105   3.105   3.105   3.105   3.105
   218.00    3.105   3.105   3.105   3.105   3.105   3.105   3.105   3.105   3.105   3.105   3.105   3.105   3.105   3.105   3.105   3.105   3.105   3.105   3.105   3.105   3.105   3.105   3.105   3.105   3.105   3.105   3.105   3.105   3.105   3.105   3.105   3.105   3.105   3.105   3.105   3.105   3.105   3.105   3.105   3.105   3.105   3.105   3.105   3.105   3.105   3.105   3.105   3.105   3.105   3.105   3.105   3.105   3.105   3.105   3.105   3.105
   214.00    3.105   3.105   3.105   3.105   3.105   3.105   3.105   3.105   3.105   3.105   3.105   3.105   3.105   3.105   3.105   3.105   3.105   3.105   3.105   3.105   3.105   3.105   3.105   3.105   3.105   3.105   3.105   3.105   3.105   3.105   3.105   3.105   3.105   3.105   3.105   3.105   3.105   3.105   3.105   3.105   3.105   3.105   3.105   3.105   3.105   3.105   3.105   3.105   3.105   3.105   3.105   3.105   3.105   3.105   3.105   3.105
   210.00    3.105   3.105   3.105   3.105   3.105   3.105   3.105   3.105   3.105   3.105   3.105   3.105   3.105   3.105   3.105   3.105   3.105   3.105   3.105   3.105   3.105   3.105   3.105   3.105   3.105   3.105   3.105   3.105   3.105   3.105   3.105   3.105   3.105   3.105   3.105   3.105   3.105   3.105   3.105   3.105   3.105   3.105   3.105   3.105   3.105   3.105   3.105   3.105   3.105   3.105   3.105   3.105   3.105   3.105   3.105   3.105
   206.00    3.105   3.105   3.105   3.105   3.105   3.105   3.105   3.105   3.105   3.105   3.105   3.105   3.105   3.105   3.105   3.105   3.105   3.105   3.105   3.105   3.105   3.105   3.105   3.105   3.105   3.105   3.105   3.105   3.105   3.105   3.105   3.105   3.105   3.105   3.105   3.105   3.105   3.105   3.105   3.105   3.105   3.105   3.105   3.105   3.105   3.105   3.105   3.105   3.105   3.105   3.105   3.105   3.105   3.105   3.105   3.105
   202.00    3.105   3.105   3.105   3.105   3.105   3.105   3.105   3.105   3.105   3.105   3.105   3.105   3.105   3.105   3.105   3.105   3.105   3.105   3.105   3.105   3.105   3.105   3.105   3.105   3.105   3.105   3.105   3.105   3.105   3.105   3.105   3.105   3.105   3.105   3.105   3.105   3.105   3.105   3.105   3.105   3.105   3.105   3.105   3.105   3.105   3.105   3.105   3.105   3.105   3.105   3.105   3.105   3.105   3.105   3.105   3.105
   198.00    3.105   3.105   3.105   3.105   3.105   3.105   3.105   3.105   3.105   3.105   3.105   3.105   3.105   3.105   3.105   3.105   3.105   3.105   3.105   3.105   3.105   3.105   3.105   3.105   3.105   3.105   3.105   3.105   3.105   3.105   3.105   3.105   3.105   3.105   3.105   3.105   3.105   3.105   3.105   3.105   3.105   3.105   3.105   3.105   3.105   3.105   3.105   3.105   3.105   3.105   3.105   3.105   3.105   3.105   3.105   3.105
   194.00    3.105   3.105   3.105   3.105   3.105   3.105   3.105   3.105   3.105   3.105   3.105   3.105   3.105   3.105   3.105   3.105   3.105   3.105   3.105   3.105   3.105   3.105   3.105   3.105   3.105   3.105   3.105   3.105   3.105   3.105   3.105   3.105   3.105   3.105   3.105   3.105   3.105   3.105   3.105   3.105   3.105   3.105   3.105   3.105   3.105   3.105   3.105   3.105   3.105   3.105   3.105   3.105   3.105   3.105   3.105   3.105
   190.00    3.105   3.105   3.105   3.105   3.105   3.105   3.105   3.105   3.105   3.105   3.105   3.105   3.105   3.105   3.105   3.105   3.105   3.105   3.105   3.105   3.105   3.105   3.105   3.105   3.105   3.105   3.105   3.105   3.105   3.105   3.105   3.105   3.105   3.105   3.105   3.105   3.105   3.105   3.105   3.105   3.105   3.105   3.105   3.105   3.105   3.105   3.105   3.105   3.105   3.105   3.105   3.105   3.105   3.105   3.105   3.105
   186.00    3.105   3.105   3.105   3.105   3.105   3.105   3.105   3.105   3.105   3.105   3.105   3.105   3.105   3.105   3.105   3.105   3.105   3.105   3.105   3.105   3.105   3.105   3.105   3.105   3.105   3.105   3.105   3.105   3.105   3.105   3.105   3.105   3.105   3.105   3.105   3.105   3.105   3.105   3.105   3.105   3.105   3.105   3.105   3.105   3.105   3.105   3.105   3.105   3.105   3.105   3.105   3.105   3.105   3.105   3.105   3.105
   182.00    3.105   3.105   3.105   3.105   3.105   3.105   3.105   3.105   3.105   3.105   3.105   3.105   3.105   3.105   3.105   3.105   3.105   3.105   3.105   3.105   3.105   3.105   3.105   3.105   3.105   3.105   3.105   3.105   3.105   3.105   3.105   3.105   3.105   3.105   3.105   3.105   3.105   3.105   3.105   3.105   3.105   3.105   3.105   3.105   3.105   3.105   3.105   3.105   3.105   3.105   3.105   3.105   3.105   3.105   3.105   3.105
   178.00    3.105   3.105   3.105   3.105   3.105   3.105   3.105   3.105   3.105   3.105   3.105   3.105   3.105   3.105   3.105   3.105   3.105   3.105   3.105   3.105   3.105   3.105   3.105   3.105   3.105   3.105   3.105   3.105   3.105   3.105   3.105   3.105   3.105   3.105   3.105   3.105   3.105   3.105   3.105   3.105   3.105   3.105   3.105   3.105   3.105   3.105   3.105   3.105   3.105   3.105   3.105   3.105   3.105   3.105   3.105   3.105
   174.00    3.105   3.105   3.105   3.105   3.105   3.105   3.105   3.105   3.105   3.105   3.105   3.105   3.105   3.105   3.105   3.105   3.105   3.105   3.105   3.105   3.105   3.105   3.105   3.105   3.105   3.105   3.105   3.105   3.105   3.105   3.105   3.105   3.105   3.105   3.105   3.105   3.105   3.105   3.105   3.105   3.105   3.105   3.105   3.105   3.105   3.105   3.105   3.105   3.105   3.105   3.105   3.105   3.105   3.105   3.105   3.105
   170.00    3.105   3.105   3.105   3.105   3.105   3.105   3.105   3.105   3.105   3.105   3.105   3.105   3.105   3.105   3.105   3.105   3.105   3.105   3.105   3.105   3.105   3.105   3.105   3.105   3.105   3.105   3.105   3.105   3.105   3.105   3.105   3.105   3.105   3.105   3.105   3.105   3.105   3.105   3.105   3.105   3.105   3.105   3.105   3.105   3.105   3.105   3.105   3.105   3.105   3.105   3.105   3.105   3.105   3.105   3.105   3.105
   166.00    3.105   3.105   3.105   3.105   3.105   3.105   3.105   3.105   3.105   3.105   3.105   3.105   3.105   3.105   3.105   3.105   3.105   3.105   3.105   3.105   3.105   3.105   3.105   3.105   3.105   3.105   3.105   3.105   3.105   3.105   3.105   3.105   3.105   3.105   3.105   3.105   3.105   3.105   3.105   3.105   3.105   3.105   3.105   3.105   3.105   3.105   3.105   3.105   3.105   3.105   3.105   3.105   3.105   3.105   3.105   3.105
   162.00    3.105   3.105   3.105   3.105   3.105   3.105   3.105   3.105   3.105   3.105   3.105   3.105   3.105   3.105   3.105   3.105   3.105   3.105   3.105   3.105   3.105   3.105   3.105   3.105   3.105   3.105   3.105   3.105   3.105   3.105   3.105   3.105   3.105   3.105   3.105   3.105   3.105   3.105   3.105   3.105   3.105   3.105   3.105   3.105   3.105   3.105   3.105   3.105   3.105   3.105   3.105   3.105   3.105   3.105   3.105   3.105
   158.00    3.105   3.105   3.105   3.105   3.105   3.105   3.105   3.105   3.105   3.105   3.105   3.105   3.105   3.105   3.105   3.105   3.105   3.105   3.105   3.105   3.105   3.105   3.105   3.105   3.105   3.105   3.105   3.105   3.105   3.105   3.105   3.105   3.105   3.105   3.105   3.105   3.105   3.105   3.105   3.105   3.105   3.105   3.105   3.105   3.105   3.105   3.105   3.105   3.105   3.105   3.105   3.105   3.105   3.105   3.105   3.105
   154.00    3.105   3.105   3.105   3.105   3.105   3.105   3.105   3.105   3.105   3.105   3.105   3.105   3.105   3.105   3.105   3.105   3.105   3.105   3.105   3.105   3.105   3.105   3.105   3.105   3.105   3.105   3.105   3.105   3.105   3.105   3.105   3.105   3.105   3.105   3.105   3.105   3.105   3.105   3.105   3.105   3.105   3.105   3.105   3.105   3.105   3.105   3.105   3.105   3.105   3.105   3.105   3.105   3.105   3.105   3.105   3.105
   150.00    3.105   3.105   3.105   3.105   3.105   3.105   3.105   3.105   3.105   3.105   3.105   3.105   3.105   3.105   3.105   3.105   3.105   3.105   3.105   3.105   3.105   3.105   3.105   3.105   3.105   3.105   3.105   3.105   3.105   3.105   3.105   3.105   3.105   3.105   3.105   3.105   3.105   3.105   3.105   3.105   3.105   3.105   3.105   3.105   3.105   3.105   3.105   3.105   3.105   3.105   3.105   3.105   3.105   3.105   3.105   3.105
   146.00    3.105   3.105   3.105   3.105   3.105   3.105   3.105   3.105   3.105   3.105   3.105   3.105   3.105   3.105   3.105   3.105   3.105   3.105   3.105   3.105   3.105   3.105   3.105   3.105   3.105   3.105   3.105   3.105   3.105   3.105   3.105   3.105   3.105   3.105   3.105   3.105   3.105   3.105   3.105   3.105   3.105   3.105   3.105   3.105   3.105   3.105   3.105   3.105   3.105   3.105   3.105   3.105   3.105   3.105   3.105   3.105
   142.00    3.105   3.105   3.105   3.105   3.105   3.105   3.105   3.105   3.105   3.105   3.105   3.105   3.105   3.105   3.105   3.105   3.105   3.105   3.105   3.105   3.105   3.105   3.105   3.105   3.105   3.105   3.105   3.105   3.105   3.105   3.105   3.105   3.105   3.105   3.105   3.105   3.105   3.105   3.105   3.105   3.105   3.105   3.105   3.105   3.105   3.105   3.105   3.105   3.105   3.105   3.105   3.105   3.105   3.105   3.105   3.105
   138.00    3.105   3.105   3.105   3.105   3.105   3.105   3.105   3.105   3.105   3.105   3.105   3.105   3.105   3.105   3.105   3.105   3.105   3.105   3.105   3.105   3.105   3.105   3.105   3.105   3.105   3.105   3.105   3.105   3.105   3.105   3.105   3.105   3.105   3.105   3.105   3.105   3.105   3.105   3.105   3.105   3.105   3.105   3.105   3.105   3.105   3.105   3.105   3.105   3.105   3.105   3.105   3.105   3.105   3.105   3.105   3.105
   134.00    3.105   3.105   3.105   3.105   3.105   3.105   3.105   3.105   3.105   3.105   3.105   3.105   3.105   3.105   3.105   3.105   3.105   3.105   3.105   3.105   3.105   3.105   3.105   3.105   3.105   3.105   3.105   3.105   3.105   3.105   3.105   3.105   3.105   3.105   3.105   3.105   3.105   3.105   3.105   3.105   3.105   3.105   3.105   3.105   3.105   3.105   3.105   3.105   3.105   3.105   3.105   3.105   3.105   3.105   3.105   3.105
   130.00    3.105   3.105   3.105   3.105   3.105   3.105   3.105   3.105   3.105   3.105   3.105   3.105   3.105   3.105   3.105   3.105   3.105   3.105   3.105   3.105   3.105   3.105   3.105   3.105   3.105   3.105   3.105   3.105   3.105   3.105   3.105   3.105   3.105   3.105   3.105   3.105   3.105   3.105   3.105   3.105   3.105   3.105   3.105   3.105   3.105   3.105   3.105   3.105   3.105   3.105   3.105   3.105   3.105   3.105   3.105   3.105
   126.00    3.105   3.105   3.105   3.105   3.105   3.105   3.105   3.105   3.105   3.105   3.105   3.105   3.105   3.105   3.105   3.105   3.105   3.105   3.105   3.105   3.105   3.105   3.105   3.105   3.105   3.105   3.105   3.105   3.105   3.105   3.105   3.105   3.105   3.105   3.105   3.105   3.105   3.105   3.105   3.105   3.105   3.105   3.105   3.105   3.105   3.105   3.105   3.105   3.105   3.105   3.105   3.105   3.105   3.105   3.105   3.105
   122.00    3.105   3.105   3.105   3.105   3.105   3.105   3.105   3.105   3.105   3.105   3.105   3.105   3.105   3.105   3.105   3.105   3.105   3.105   3.105   3.105   3.105   3.105   3.105   3.105   3.105   3.105   3.105   3.105   3.105   3.105   3.105   3.105   3.105   3.105   3.105   3.105   3.105   3.105   3.105   3.105   3.105   3.105   3.105   3.105   3.105   3.105   3.105   3.105   3.105   3.105   3.105   3.105   3.105   3.105   3.105   3.105
   118.00    3.105   3.105   3.105   3.105   3.105   3.105   3.105   3.105   3.105   3.105   3.105   3.105   3.105   3.105   3.105   3.105   3.105   3.105   3.105   3.105   3.105   3.105   3.105   3.105   3.105   3.105   3.105   3.105   3.105   3.105   3.105   3.105   3.105   3.105   3.105   3.105   3.105   3.105   3.105   3.105   3.105   3.105   3.105   3.105   3.105   3.105   3.105   3.105   3.105   3.105   3.105   3.105   3.105   3.105   3.105   3.105
   114.00    3.105   3.105   3.105   3.105   3.105   3.105   3.105   3.105   3.105   3.105   3.105   3.105   3.105   3.105   3.105   3.105   3.105   3.105   3.105   3.105   3.105   3.105   3.105   3.105   3.105   3.105   3.105   3.105   3.105   3.105   3.105   3.105   3.105   3.105   3.105   3.105   3.105   3.105   3.105   3.105   3.105   3.105   3.105   3.105   3.105   3.105   3.105   3.105   3.105   3.105   3.105   3.105   3.105   3.105   3.105   3.105
   110.00    3.105   3.105   3.105   3.105   3.105   3.105   3.105   3.105   3.105   3.105   3.105   3.105   3.105   3.105   3.105   3.105   3.105   3.105   3.105   3.105   3.105   3.105   3.105   3.105   3.105   3.105   3.105   3.105   3.105   3.105   3.105   3.105   3.105   3.105   3.105   3.105   3.105   3.105   3.105   3.105   3.105   3.105   3.105   3.105   3.105   3.105   3.105   3.105   3.105   3.105   3.105   3.105   3.105   3.105   3.105   3.105
   106.00    3.105   3.105   3.105   3.105   3.105   3.105   3.105   3.105   3.105   3.105   3.105   3.105   3.105   3.105   3.105   3.105   3.105   3.105   3.105   3.105   3.105   3.105   3.105   3.105   3.105   3.105   3.105   3.105   3.105   3.105   3.105   3.105   3.105   3.105   3.105   3.105   3.105   3.105   3.105   3.105   3.105   3.105   3.105   3.105   3.105   3.105   3.105   3.105   3.105   3.105   3.105   3.105   3.105   3.105   3.105   3.105
   102.00    3.105   3.105   3.105   3.105   3.105   3.105   3.105   3.105   3.105   3.105   3.105   3.105   3.105   3.105   3.105   3.105   3.105   3.105   3.105   3.105   3.105   3.105   3.105   3.105   3.105   3.105   3.105   3.105   3.105   3.105   3.105   3.105   3.105   3.105   3.105   3.105   3.105   3.105   3.105   3.105   3.105   3.105   3.105   3.105   3.105   3.105   3.105   3.105   3.105   3.105   3.105   3.105   3.105   3.105   3.105   3.105
    98.00    3.105   3.105   3.105   3.105   3.105   3.105   3.105   3.105   3.105   3.105   3.105   3.105   3.105   3.105   3.105   3.105   3.105   3.105   3.105   3.105   3.105   3.105   3.105   3.105   3.105   3.105   3.105   3.105   3.105   3.105   3.105   3.105   3.105   3.105   3.105   3.105   3.105   3.105   3.105   3.105   3.105   3.105   3.105   3.105   3.105   3.105   3.105   3.105   3.105   3.105   3.105   3.105   3.105   3.105   3.105   3.105
    94.00    3.105   3.105   3.105   3.105   3.105   3.105   3.105   3.105   3.105   3.105   3.105   3.105   3.105   3.105   3.105   3.105   3.105   3.105   3.105   3.105   3.105   3.105   3.105   3.105   3.105   3.105   3.105   3.105   3.105   3.105   3.105   3.105   3.105   3.105   3.105   3.105   3.105   3.105   3.105   3.105   3.105   3.105   3.105   3.105   3.105   3.105   3.105   3.105   3.105   3.105   3.105   3.105   3.105   3.105   3.105   3.105
    90.00    3.105   3.105   3.105   3.105   3.105   3.105   3.105   3.105   3.105   3.105   3.105   3.105   3.105   3.105   3.105   3.105   3.105   3.105   3.105   3.105   3.105   3.105   3.105   3.105   3.105   3.105   3.105   3.105   3.105   3.105   3.105   3.105   3.105   3.105   3.105   3.105   3.105   3.105   3.105   3.105   3.105   3.105   3.105   3.105   3.105   3.105   3.105   3.105   3.105   3.105   3.105   3.105   3.105   3.105   3.105   3.105
    86.00    3.105   3.105   3.105   3.105   3.105   3.105   3.105   3.105   3.105   3.105   3.105   3.105   3.105   3.105   3.105   3.105   3.105   3.105   3.105   3.105   3.105   3.105   3.105   3.105   3.105   3.105   3.105   3.105   3.105   3.105   3.105   3.105   3.105   3.105   3.105   3.105   3.105   3.105   3.105   3.105   3.105   3.105   3.105   3.105   3.105   3.105   3.105   3.105   3.105   3.105   3.105   3.105   3.105   3.105   3.105   3.105
    82.00    3.105   3.105   3.105   3.105   3.105   3.105   3.105   3.105   3.105   3.105   3.105   3.105   3.105   3.105   3.105   3.105   3.105   3.105   3.105   3.105   3.105   3.105   3.105   3.105   3.105   3.105   3.105   3.105   3.105   3.105   3.105   3.105   3.105   3.105   3.105   3.105   3.105   3.105   3.105   3.105   3.105   3.105   3.105   3.105   3.105   3.105   3.105   3.105   3.105   3.105   3.105   3.105   3.105   3.105   3.105   3.105
    78.00    3.105   3.105   3.105   3.105   3.105   3.105   3.105   3.105   3.105   3.105   3.105   3.105   3.105   3.105   3.105   3.105   3.105   3.105   3.105   3.105   3.105   3.105   3.105   3.105   3.105   3.105   3.105   3.105   3.105   3.105   3.105   3.105   3.105   3.105   3.105   3.105   3.105   3.105   3.105   3.105   3.105   3.105   3.105   3.105   3.105   3.105   3.105   3.105   3.105   3.105   3.105   3.105   3.105   3.105   3.105   3.105
    74.00    3.105   3.105   3.105   3.105   3.105   3.105   3.105   3.105   3.105   3.105   3.105   3.105   3.105   3.105   3.105   3.105   3.105   3.105   3.105   3.105   3.105   3.105   3.105   3.105   3.105   3.105   3.105   3.105   3.105   3.105   3.105   3.105   3.105   3.105   3.105   3.105   3.105   3.105   3.105   3.105   3.105   3.105   3.105   3.105   3.105   3.105   3.105   3.105   3.105   3.105   3.105   3.105   3.105   3.105   3.105   3.105
    70.00    3.105   3.105   3.105   3.105   3.105   3.105   3.105   3.105   3.105   3.105   3.105   3.105   3.105   3.105   3.105   3.105   3.105   3.105   3.105   3.105   3.105   3.105   3.105   3.105   3.105   3.105   3.105   3.105   3.105   3.105   3.105   3.105   3.105   3.105   3.105   3.105   3.105   3.105   3.105   3.105   3.105   3.105   3.105   3.105   3.105   3.105   3.105   3.105   3.105   3.105   3.105   3.105   3.105   3.105   3.105   3.105
    66.00    3.105   3.105   3.105   3.105   3.105   3.105   3.105   3.105   3.105   3.105   3.105   3.105   3.105   3.105   3.105   3.105   3.105   3.105   3.105   3.105   3.105   3.105   3.105   3.105   3.105   3.105   3.105   3.105   3.105   3.105   3.105   3.105   3.105   3.105   3.105   3.105   3.105   3.105   3.105   3.105   3.105   3.105   3.105   3.105   3.105   3.105   3.105   3.105   3.105   3.105   3.105   3.105   3.105   3.105   3.105   3.105
    62.00    3.105   3.105   3.105   3.105   3.105   3.105   3.105   3.105   3.105   3.105   3.105   3.105   3.105   3.105   3.105   3.105   3.105   3.105   3.105   3.105   3.105   3.105   3.105   3.105   3.105   3.105   3.105   3.105   3.105   3.105   3.105   3.105   3.105   3.105   3.105   3.105   3.105   3.105   3.105   3.105   3.105   3.105   3.105   3.105   3.105   3.105   3.105   3.105   3.105   3.105   3.105   3.105   3.105   3.105   3.105   3.105
    58.00    3.105   3.105   3.105   3.105   3.105   3.105   3.105   3.105   3.105   3.105   3.105   3.105   3.105   3.105   3.105   3.105   3.105   3.105   3.105   3.105   3.105   3.105   3.105   3.105   3.105   3.105   3.105   3.105   3.105   3.105   3.105   3.105   3.105   3.105   3.105   3.105   3.105   3.105   3.105   3.105   3.105   3.105   3.105   3.105   3.105   3.105   3.105   3.105   3.105   3.105   3.105   3.105   3.105   3.105   3.105   3.105
    54.00    3.105   3.105   3.105   3.105   3.105   3.105   3.105   3.105   3.105   3.105   3.105   3.105   3.105   3.105   3.105   3.105   3.105   3.105   3.105   3.105   3.105   3.105   3.105   3.105   3.105   3.105   3.105   3.105   3.105   3.105   3.105   3.105   3.105   3.105   3.105   3.105   3.105   3.105   3.105   3.105   3.105   3.105   3.105   3.105   3.105   3.105   3.105   3.105   3.105   3.105   3.105   3.105   3.105   3.105   3.105   3.105
    50.00    3.105   3.105   3.105   3.105   3.105   3.105   3.105   3.105   3.105   3.105   3.105   3.105   3.105   3.105   3.105   3.105   3.105   3.105   3.105   3.105   3.105   3.105   3.105   3.105   3.105   3.105   3.105   3.105   3.105   3.105   3.105   3.105   3.105   3.105   3.105   3.105   3.105   3.105   3.105   3.105   3.105   3.105   3.105   3.105   3.105   3.105   3.105   3.105   3.105   3.105   3.105   3.105   3.105   3.105   3.105   3.105
    46.00    3.105   3.105   3.105   3.105   3.105   3.105   3.105   3.105   3.105   3.105   3.105   3.105   3.105   3.105   3.105   3.105   3.105   3.105   3.105   3.105   3.105   3.105   3.105   3.105   3.105   3.105   3.105   3.105   3.105   3.105   3.105   3.105   3.105   3.105   3.105   3.105   3.105   3.105   3.105   3.105   3.105   3.105   3.105   3.105   3.105   3.105   3.105   3.105   3.105   3.105   3.105   3.105   3.105   3.105   3.105   3.105
    42.00    3.105   3.105   3.105   3.105   3.105   3.105   3.105   3.105   3.105   3.105   3.105   3.105   3.105   3.105   3.105   3.105   3.105   3.105   3.105   3.105   3.105   3.105   3.105   3.105   3.105   3.105   3.105   3.105   3.105   3.105   3.105   3.105   3.105   3.105   3.105   3.105   3.105   3.105   3.105   3.105   3.105   3.105   3.105   3.105   3.105   3.105   3.105   3.105   3.105   3.105   3.105   3.105   3.105   3.105   3.105   3.105
    38.00    3.105   3.105   3.105   3.105   3.105   3.105   3.105   3.105   3.105   3.105   3.105   3.105   3.105   3.105   3.105   3.105   3.105   3.105   3.105   3.105   3.105   3.105   3.105   3.105   3.105   3.105   3.105   3.105   3.105   3.105   3.105   3.105   3.105   3.105   3.105   3.105   3.105   3.105   3.105   3.105   3.105   3.105   3.105   3.105   3.105   3.105   3.105   3.105   3.105   3.105   3.105   3.105   3.105   3.105   3.105   3.105
    34.00    3.105   3.105   3.105   3.105   3.105   3.105   3.105   3.105   3.105   3.105   3.105   3.105   3.105   3.105   3.105   3.105   3.105   3.105   3.105   3.105   3.105   3.105   3.105   3.105   3.105   3.105   3.105   3.105   3.105   3.105   3.105   3.105   3.105   3.105   3.105   3.105   3.105   3.105   3.105   3.105   3.105   3.105   3.105   3.105   3.105   3.105   3.105   3.105   3.105   3.105   3.105   3.105   3.105   3.105   3.105   3.105
    30.00    3.105   3.105   3.105   3.105   3.105   3.105   3.105   3.105   3.105   3.105   3.105   3.105   3.105   3.105   3.105   3.105   3.105   3.105   3.105   3.105   3.105   3.105   3.105   3.105   3.105   3.105   3.105   3.105   3.105   3.105   3.105   3.105   3.105   3.105   3.105   3.105   3.105   3.105   3.105   3.105   3.105   3.105   3.105   3.105   3.105   3.105   3.105   3.105   3.105   3.105   3.105   3.105   3.105   3.105   3.105   3.105

   Height   Standard deviation at grid points for the w component:
   250.00    1.914   1.914   1.914   1.914   1.914   1.914   1.914   1.914   1.914   1.914   1.914   1.914   1.914   1.914   1.914   1.914   1.914   1.914   1.914   1.914   1.914   1.914   1.914   1.914   1.914   1.914   1.914   1.914   1.914   1.914   1.914   1.914   1.914   1.914   1.914   1.914   1.914   1.914   1.914   1.914   1.914   1.914   1.914   1.914   1.914   1.914   1.914   1.914   1.914   1.914   1.914   1.914   1.914   1.914   1.914   1.914
   246.00    1.914   1.914   1.914   1.914   1.914   1.914   1.914   1.914   1.914   1.914   1.914   1.914   1.914   1.914   1.914   1.914   1.914   1.914   1.914   1.914   1.914   1.914   1.914   1.914   1.914   1.914   1.914   1.914   1.914   1.914   1.914   1.914   1.914   1.914   1.914   1.914   1.914   1.914   1.914   1.914   1.914   1.914   1.914   1.914   1.914   1.914   1.914   1.914   1.914   1.914   1.914   1.914   1.914   1.914   1.914   1.914
   242.00    1.914   1.914   1.914   1.914   1.914   1.914   1.914   1.914   1.914   1.914   1.914   1.914   1.914   1.914   1.914   1.914   1.914   1.914   1.914   1.914   1.914   1.914   1.914   1.914   1.914   1.914   1.914   1.914   1.914   1.914   1.914   1.914   1.914   1.914   1.914   1.914   1.914   1.914   1.914   1.914   1.914   1.914   1.914   1.914   1.914   1.914   1.914   1.914   1.914   1.914   1.914   1.914   1.914   1.914   1.914   1.914
   238.00    1.914   1.914   1.914   1.914   1.914   1.914   1.914   1.914   1.914   1.914   1.914   1.914   1.914   1.914   1.914   1.914   1.914   1.914   1.914   1.914   1.914   1.914   1.914   1.914   1.914   1.914   1.914   1.914   1.914   1.914   1.914   1.914   1.914   1.914   1.914   1.914   1.914   1.914   1.914   1.914   1.914   1.914   1.914   1.914   1.914   1.914   1.914   1.914   1.914   1.914   1.914   1.914   1.914   1.914   1.914   1.914
   234.00    1.914   1.914   1.914   1.914   1.914   1.914   1.914   1.914   1.914   1.914   1.914   1.914   1.914   1.914   1.914   1.914   1.914   1.914   1.914   1.914   1.914   1.914   1.914   1.914   1.914   1.914   1.914   1.914   1.914   1.914   1.914   1.914   1.914   1.914   1.914   1.914   1.914   1.914   1.914   1.914   1.914   1.914   1.914   1.914   1.914   1.914   1.914   1.914   1.914   1.914   1.914   1.914   1.914   1.914   1.914   1.914
   230.00    1.914   1.914   1.914   1.914   1.914   1.914   1.914   1.914   1.914   1.914   1.914   1.914   1.914   1.914   1.914   1.914   1.914   1.914   1.914   1.914   1.914   1.914   1.914   1.914   1.914   1.914   1.914   1.914   1.914   1.914   1.914   1.914   1.914   1.914   1.914   1.914   1.914   1.914   1.914   1.914   1.914   1.914   1.914   1.914   1.914   1.914   1.914   1.914   1.914   1.914   1.914   1.914   1.914   1.914   1.914   1.914
   226.00    1.914   1.914   1.914   1.914   1.914   1.914   1.914   1.914   1.914   1.914   1.914   1.914   1.914   1.914   1.914   1.914   1.914   1.914   1.914   1.914   1.914   1.914   1.914   1.914   1.914   1.914   1.914   1.914   1.914   1.914   1.914   1.914   1.914   1.914   1.914   1.914   1.914   1.914   1.914   1.914   1.914   1.914   1.914   1.914   1.914   1.914   1.914   1.914   1.914   1.914   1.914   1.914   1.914   1.914   1.914   1.914
   222.00    1.914   1.914   1.914   1.914   1.914   1.914   1.914   1.914   1.914   1.914   1.914   1.914   1.914   1.914   1.914   1.914   1.914   1.914   1.914   1.914   1.914   1.914   1.914   1.914   1.914   1.914   1.914   1.914   1.914   1.914   1.914   1.914   1.914   1.914   1.914   1.914   1.914   1.914   1.914   1.914   1.914   1.914   1.914   1.914   1.914   1.914   1.914   1.914   1.914   1.914   1.914   1.914   1.914   1.914   1.914   1.914
   218.00    1.914   1.914   1.914   1.914   1.914   1.914   1.914   1.914   1.914   1.914   1.914   1.914   1.914   1.914   1.914   1.914   1.914   1.914   1.914   1.914   1.914   1.914   1.914   1.914   1.914   1.914   1.914   1.914   1.914   1.914   1.914   1.914   1.914   1.914   1.914   1.914   1.914   1.914   1.914   1.914   1.914   1.914   1.914   1.914   1.914   1.914   1.914   1.914   1.914   1.914   1.914   1.914   1.914   1.914   1.914   1.914
   214.00    1.914   1.914   1.914   1.914   1.914   1.914   1.914   1.914   1.914   1.914   1.914   1.914   1.914   1.914   1.914   1.914   1.914   1.914   1.914   1.914   1.914   1.914   1.914   1.914   1.914   1.914   1.914   1.914   1.914   1.914   1.914   1.914   1.914   1.914   1.914   1.914   1.914   1.914   1.914   1.914   1.914   1.914   1.914   1.914   1.914   1.914   1.914   1.914   1.914   1.914   1.914   1.914   1.914   1.914   1.914   1.914
   210.00    1.914   1.914   1.914   1.914   1.914   1.914   1.914   1.914   1.914   1.914   1.914   1.914   1.914   1.914   1.914   1.914   1.914   1.914   1.914   1.914   1.914   1.914   1.914   1.914   1.914   1.914   1.914   1.914   1.914   1.914   1.914   1.914   1.914   1.914   1.914   1.914   1.914   1.914   1.914   1.914   1.914   1.914   1.914   1.914   1.914   1.914   1.914   1.914   1.914   1.914   1.914   1.914   1.914   1.914   1.914   1.914
   206.00    1.914   1.914   1.914   1.914   1.914   1.914   1.914   1.914   1.914   1.914   1.914   1.914   1.914   1.914   1.914   1.914   1.914   1.914   1.914   1.914   1.914   1.914   1.914   1.914   1.914   1.914   1.914   1.914   1.914   1.914   1.914   1.914   1.914   1.914   1.914   1.914   1.914   1.914   1.914   1.914   1.914   1.914   1.914   1.914   1.914   1.914   1.914   1.914   1.914   1.914   1.914   1.914   1.914   1.914   1.914   1.914
   202.00    1.914   1.914   1.914   1.914   1.914   1.914   1.914   1.914   1.914   1.914   1.914   1.914   1.914   1.914   1.914   1.914   1.914   1.914   1.914   1.914   1.914   1.914   1.914   1.914   1.914   1.914   1.914   1.914   1.914   1.914   1.914   1.914   1.914   1.914   1.914   1.914   1.914   1.914   1.914   1.914   1.914   1.914   1.914   1.914   1.914   1.914   1.914   1.914   1.914   1.914   1.914   1.914   1.914   1.914   1.914   1.914
   198.00    1.914   1.914   1.914   1.914   1.914   1.914   1.914   1.914   1.914   1.914   1.914   1.914   1.914   1.914   1.914   1.914   1.914   1.914   1.914   1.914   1.914   1.914   1.914   1.914   1.914   1.914   1.914   1.914   1.914   1.914   1.914   1.914   1.914   1.914   1.914   1.914   1.914   1.914   1.914   1.914   1.914   1.914   1.914   1.914   1.914   1.914   1.914   1.914   1.914   1.914   1.914   1.914   1.914   1.914   1.914   1.914
   194.00    1.914   1.914   1.914   1.914   1.914   1.914   1.914   1.914   1.914   1.914   1.914   1.914   1.914   1.914   1.914   1.914   1.914   1.914   1.914   1.914   1.914   1.914   1.914   1.914   1.914   1.914   1.914   1.914   1.914   1.914   1.914   1.914   1.914   1.914   1.914   1.914   1.914   1.914   1.914   1.914   1.914   1.914   1.914   1.914   1.914   1.914   1.914   1.914   1.914   1.914   1.914   1.914   1.914   1.914   1.914   1.914
   190.00    1.914   1.914   1.914   1.914   1.914   1.914   1.914   1.914   1.914   1.914   1.914   1.914   1.914   1.914   1.914   1.914   1.914   1.914   1.914   1.914   1.914   1.914   1.914   1.914   1.914   1.914   1.914   1.914   1.914   1.914   1.914   1.914   1.914   1.914   1.914   1.914   1.914   1.914   1.914   1.914   1.914   1.914   1.914   1.914   1.914   1.914   1.914   1.914   1.914   1.914   1.914   1.914   1.914   1.914   1.914   1.914
   186.00    1.914   1.914   1.914   1.914   1.914   1.914   1.914   1.914   1.914   1.914   1.914   1.914   1.914   1.914   1.914   1.914   1.914   1.914   1.914   1.914   1.914   1.914   1.914   1.914   1.914   1.914   1.914   1.914   1.914   1.914   1.914   1.914   1.914   1.914   1.914   1.914   1.914   1.914   1.914   1.914   1.914   1.914   1.914   1.914   1.914   1.914   1.914   1.914   1.914   1.914   1.914   1.914   1.914   1.914   1.914   1.914
   182.00    1.914   1.914   1.914   1.914   1.914   1.914   1.914   1.914   1.914   1.914   1.914   1.914   1.914   1.914   1.914   1.914   1.914   1.914   1.914   1.914   1.914   1.914   1.914   1.914   1.914   1.914   1.914   1.914   1.914   1.914   1.914   1.914   1.914   1.914   1.914   1.914   1.914   1.914   1.914   1.914   1.914   1.914   1.914   1.914   1.914   1.914   1.914   1.914   1.914   1.914   1.914   1.914   1.914   1.914   1.914   1.914
   178.00    1.914   1.914   1.914   1.914   1.914   1.914   1.914   1.914   1.914   1.914   1.914   1.914   1.914   1.914   1.914   1.914   1.914   1.914   1.914   1.914   1.914   1.914   1.914   1.914   1.914   1.914   1.914   1.914   1.914   1.914   1.914   1.914   1.914   1.914   1.914   1.914   1.914   1.914   1.914   1.914   1.914   1.914   1.914   1.914   1.914   1.914   1.914   1.914   1.914   1.914   1.914   1.914   1.914   1.914   1.914   1.914
   174.00    1.914   1.914   1.914   1.914   1.914   1.914   1.914   1.914   1.914   1.914   1.914   1.914   1.914   1.914   1.914   1.914   1.914   1.914   1.914   1.914   1.914   1.914   1.914   1.914   1.914   1.914   1.914   1.914   1.914   1.914   1.914   1.914   1.914   1.914   1.914   1.914   1.914   1.914   1.914   1.914   1.914   1.914   1.914   1.914   1.914   1.914   1.914   1.914   1.914   1.914   1.914   1.914   1.914   1.914   1.914   1.914
   170.00    1.914   1.914   1.914   1.914   1.914   1.914   1.914   1.914   1.914   1.914   1.914   1.914   1.914   1.914   1.914   1.914   1.914   1.914   1.914   1.914   1.914   1.914   1.914   1.914   1.914   1.914   1.914   1.914   1.914   1.914   1.914   1.914   1.914   1.914   1.914   1.914   1.914   1.914   1.914   1.914   1.914   1.914   1.914   1.914   1.914   1.914   1.914   1.914   1.914   1.914   1.914   1.914   1.914   1.914   1.914   1.914
   166.00    1.914   1.914   1.914   1.914   1.914   1.914   1.914   1.914   1.914   1.914   1.914   1.914   1.914   1.914   1.914   1.914   1.914   1.914   1.914   1.914   1.914   1.914   1.914   1.914   1.914   1.914   1.914   1.914   1.914   1.914   1.914   1.914   1.914   1.914   1.914   1.914   1.914   1.914   1.914   1.914   1.914   1.914   1.914   1.914   1.914   1.914   1.914   1.914   1.914   1.914   1.914   1.914   1.914   1.914   1.914   1.914
   162.00    1.914   1.914   1.914   1.914   1.914   1.914   1.914   1.914   1.914   1.914   1.914   1.914   1.914   1.914   1.914   1.914   1.914   1.914   1.914   1.914   1.914   1.914   1.914   1.914   1.914   1.914   1.914   1.914   1.914   1.914   1.914   1.914   1.914   1.914   1.914   1.914   1.914   1.914   1.914   1.914   1.914   1.914   1.914   1.914   1.914   1.914   1.914   1.914   1.914   1.914   1.914   1.914   1.914   1.914   1.914   1.914
   158.00    1.914   1.914   1.914   1.914   1.914   1.914   1.914   1.914   1.914   1.914   1.914   1.914   1.914   1.914   1.914   1.914   1.914   1.914   1.914   1.914   1.914   1.914   1.914   1.914   1.914   1.914   1.914   1.914   1.914   1.914   1.914   1.914   1.914   1.914   1.914   1.914   1.914   1.914   1.914   1.914   1.914   1.914   1.914   1.914   1.914   1.914   1.914   1.914   1.914   1.914   1.914   1.914   1.914   1.914   1.914   1.914
   154.00    1.914   1.914   1.914   1.914   1.914   1.914   1.914   1.914   1.914   1.914   1.914   1.914   1.914   1.914   1.914   1.914   1.914   1.914   1.914   1.914   1.914   1.914   1.914   1.914   1.914   1.914   1.914   1.914   1.914   1.914   1.914   1.914   1.914   1.914   1.914   1.914   1.914   1.914   1.914   1.914   1.914   1.914   1.914   1.914   1.914   1.914   1.914   1.914   1.914   1.914   1.914   1.914   1.914   1.914   1.914   1.914
   150.00    1.914   1.914   1.914   1.914   1.914   1.914   1.914   1.914   1.914   1.914   1.914   1.914   1.914   1.914   1.914   1.914   1.914   1.914   1.914   1.914   1.914   1.914   1.914   1.914   1.914   1.914   1.914   1.914   1.914   1.914   1.914   1.914   1.914   1.914   1.914   1.914   1.914   1.914   1.914   1.914   1.914   1.914   1.914   1.914   1.914   1.914   1.914   1.914   1.914   1.914   1.914   1.914   1.914   1.914   1.914   1.914
   146.00    1.914   1.914   1.914   1.914   1.914   1.914   1.914   1.914   1.914   1.914   1.914   1.914   1.914   1.914   1.914   1.914   1.914   1.914   1.914   1.914   1.914   1.914   1.914   1.914   1.914   1.914   1.914   1.914   1.914   1.914   1.914   1.914   1.914   1.914   1.914   1.914   1.914   1.914   1.914   1.914   1.914   1.914   1.914   1.914   1.914   1.914   1.914   1.914   1.914   1.914   1.914   1.914   1.914   1.914   1.914   1.914
   142.00    1.914   1.914   1.914   1.914   1.914   1.914   1.914   1.914   1.914   1.914   1.914   1.914   1.914   1.914   1.914   1.914   1.914   1.914   1.914   1.914   1.914   1.914   1.914   1.914   1.914   1.914   1.914   1.914   1.914   1.914   1.914   1.914   1.914   1.914   1.914   1.914   1.914   1.914   1.914   1.914   1.914   1.914   1.914   1.914   1.914   1.914   1.914   1.914   1.914   1.914   1.914   1.914   1.914   1.914   1.914   1.914
   138.00    1.914   1.914   1.914   1.914   1.914   1.914   1.914   1.914   1.914   1.914   1.914   1.914   1.914   1.914   1.914   1.914   1.914   1.914   1.914   1.914   1.914   1.914   1.914   1.914   1.914   1.914   1.914   1.914   1.914   1.914   1.914   1.914   1.914   1.914   1.914   1.914   1.914   1.914   1.914   1.914   1.914   1.914   1.914   1.914   1.914   1.914   1.914   1.914   1.914   1.914   1.914   1.914   1.914   1.914   1.914   1.914
   134.00    1.914   1.914   1.914   1.914   1.914   1.914   1.914   1.914   1.914   1.914   1.914   1.914   1.914   1.914   1.914   1.914   1.914   1.914   1.914   1.914   1.914   1.914   1.914   1.914   1.914   1.914   1.914   1.914   1.914   1.914   1.914   1.914   1.914   1.914   1.914   1.914   1.914   1.914   1.914   1.914   1.914   1.914   1.914   1.914   1.914   1.914   1.914   1.914   1.914   1.914   1.914   1.914   1.914   1.914   1.914   1.914
   130.00    1.914   1.914   1.914   1.914   1.914   1.914   1.914   1.914   1.914   1.914   1.914   1.914   1.914   1.914   1.914   1.914   1.914   1.914   1.914   1.914   1.914   1.914   1.914   1.914   1.914   1.914   1.914   1.914   1.914   1.914   1.914   1.914   1.914   1.914   1.914   1.914   1.914   1.914   1.914   1.914   1.914   1.914   1.914   1.914   1.914   1.914   1.914   1.914   1.914   1.914   1.914   1.914   1.914   1.914   1.914   1.914
   126.00    1.914   1.914   1.914   1.914   1.914   1.914   1.914   1.914   1.914   1.914   1.914   1.914   1.914   1.914   1.914   1.914   1.914   1.914   1.914   1.914   1.914   1.914   1.914   1.914   1.914   1.914   1.914   1.914   1.914   1.914   1.914   1.914   1.914   1.914   1.914   1.914   1.914   1.914   1.914   1.914   1.914   1.914   1.914   1.914   1.914   1.914   1.914   1.914   1.914   1.914   1.914   1.914   1.914   1.914   1.914   1.914
   122.00    1.914   1.914   1.914   1.914   1.914   1.914   1.914   1.914   1.914   1.914   1.914   1.914   1.914   1.914   1.914   1.914   1.914   1.914   1.914   1.914   1.914   1.914   1.914   1.914   1.914   1.914   1.914   1.914   1.914   1.914   1.914   1.914   1.914   1.914   1.914   1.914   1.914   1.914   1.914   1.914   1.914   1.914   1.914   1.914   1.914   1.914   1.914   1.914   1.914   1.914   1.914   1.914   1.914   1.914   1.914   1.914
   118.00    1.914   1.914   1.914   1.914   1.914   1.914   1.914   1.914   1.914   1.914   1.914   1.914   1.914   1.914   1.914   1.914   1.914   1.914   1.914   1.914   1.914   1.914   1.914   1.914   1.914   1.914   1.914   1.914   1.914   1.914   1.914   1.914   1.914   1.914   1.914   1.914   1.914   1.914   1.914   1.914   1.914   1.914   1.914   1.914   1.914   1.914   1.914   1.914   1.914   1.914   1.914   1.914   1.914   1.914   1.914   1.914
   114.00    1.914   1.914   1.914   1.914   1.914   1.914   1.914   1.914   1.914   1.914   1.914   1.914   1.914   1.914   1.914   1.914   1.914   1.914   1.914   1.914   1.914   1.914   1.914   1.914   1.914   1.914   1.914   1.914   1.914   1.914   1.914   1.914   1.914   1.914   1.914   1.914   1.914   1.914   1.914   1.914   1.914   1.914   1.914   1.914   1.914   1.914   1.914   1.914   1.914   1.914   1.914   1.914   1.914   1.914   1.914   1.914
   110.00    1.914   1.914   1.914   1.914   1.914   1.914   1.914   1.914   1.914   1.914   1.914   1.914   1.914   1.914   1.914   1.914   1.914   1.914   1.914   1.914   1.914   1.914   1.914   1.914   1.914   1.914   1.914   1.914   1.914   1.914   1.914   1.914   1.914   1.914   1.914   1.914   1.914   1.914   1.914   1.914   1.914   1.914   1.914   1.914   1.914   1.914   1.914   1.914   1.914   1.914   1.914   1.914   1.914   1.914   1.914   1.914
   106.00    1.914   1.914   1.914   1.914   1.914   1.914   1.914   1.914   1.914   1.914   1.914   1.914   1.914   1.914   1.914   1.914   1.914   1.914   1.914   1.914   1.914   1.914   1.914   1.914   1.914   1.914   1.914   1.914   1.914   1.914   1.914   1.914   1.914   1.914   1.914   1.914   1.914   1.914   1.914   1.914   1.914   1.914   1.914   1.914   1.914   1.914   1.914   1.914   1.914   1.914   1.914   1.914   1.914   1.914   1.914   1.914
   102.00    1.914   1.914   1.914   1.914   1.914   1.914   1.914   1.914   1.914   1.914   1.914   1.914   1.914   1.914   1.914   1.914   1.914   1.914   1.914   1.914   1.914   1.914   1.914   1.914   1.914   1.914   1.914   1.914   1.914   1.914   1.914   1.914   1.914   1.914   1.914   1.914   1.914   1.914   1.914   1.914   1.914   1.914   1.914   1.914   1.914   1.914   1.914   1.914   1.914   1.914   1.914   1.914   1.914   1.914   1.914   1.914
    98.00    1.914   1.914   1.914   1.914   1.914   1.914   1.914   1.914   1.914   1.914   1.914   1.914   1.914   1.914   1.914   1.914   1.914   1.914   1.914   1.914   1.914   1.914   1.914   1.914   1.914   1.914   1.914   1.914   1.914   1.914   1.914   1.914   1.914   1.914   1.914   1.914   1.914   1.914   1.914   1.914   1.914   1.914   1.914   1.914   1.914   1.914   1.914   1.914   1.914   1.914   1.914   1.914   1.914   1.914   1.914   1.914
    94.00    1.914   1.914   1.914   1.914   1.914   1.914   1.914   1.914   1.914   1.914   1.914   1.914   1.914   1.914   1.914   1.914   1.914   1.914   1.914   1.914   1.914   1.914   1.914   1.914   1.914   1.914   1.914   1.914   1.914   1.914   1.914   1.914   1.914   1.914   1.914   1.914   1.914   1.914   1.914   1.914   1.914   1.914   1.914   1.914   1.914   1.914   1.914   1.914   1.914   1.914   1.914   1.914   1.914   1.914   1.914   1.914
    90.00    1.914   1.914   1.914   1.914   1.914   1.914   1.914   1.914   1.914   1.914   1.914   1.914   1.914   1.914   1.914   1.914   1.914   1.914   1.914   1.914   1.914   1.914   1.914   1.914   1.914   1.914   1.914   1.914   1.914   1.914   1.914   1.914   1.914   1.914   1.914   1.914   1.914   1.914   1.914   1.914   1.914   1.914   1.914   1.914   1.914   1.914   1.914   1.914   1.914   1.914   1.914   1.914   1.914   1.914   1.914   1.914
    86.00    1.914   1.914   1.914   1.914   1.914   1.914   1.914   1.914   1.914   1.914   1.914   1.914   1.914   1.914   1.914   1.914   1.914   1.914   1.914   1.914   1.914   1.914   1.914   1.914   1.914   1.914   1.914   1.914   1.914   1.914   1.914   1.914   1.914   1.914   1.914   1.914   1.914   1.914   1.914   1.914   1.914   1.914   1.914   1.914   1.914   1.914   1.914   1.914   1.914   1.914   1.914   1.914   1.914   1.914   1.914   1.914
    82.00    1.914   1.914   1.914   1.914   1.914   1.914   1.914   1.914   1.914   1.914   1.914   1.914   1.914   1.914   1.914   1.914   1.914   1.914   1.914   1.914   1.914   1.914   1.914   1.914   1.914   1.914   1.914   1.914   1.914   1.914   1.914   1.914   1.914   1.914   1.914   1.914   1.914   1.914   1.914   1.914   1.914   1.914   1.914   1.914   1.914   1.914   1.914   1.914   1.914   1.914   1.914   1.914   1.914   1.914   1.914   1.914
    78.00    1.914   1.914   1.914   1.914   1.914   1.914   1.914   1.914   1.914   1.914   1.914   1.914   1.914   1.914   1.914   1.914   1.914   1.914   1.914   1.914   1.914   1.914   1.914   1.914   1.914   1.914   1.914   1.914   1.914   1.914   1.914   1.914   1.914   1.914   1.914   1.914   1.914   1.914   1.914   1.914   1.914   1.914   1.914   1.914   1.914   1.914   1.914   1.914   1.914   1.914   1.914   1.914   1.914   1.914   1.914   1.914
    74.00    1.914   1.914   1.914   1.914   1.914   1.914   1.914   1.914   1.914   1.914   1.914   1.914   1.914   1.914   1.914   1.914   1.914   1.914   1.914   1.914   1.914   1.914   1.914   1.914   1.914   1.914   1.914   1.914   1.914   1.914   1.914   1.914   1.914   1.914   1.914   1.914   1.914   1.914   1.914   1.914   1.914   1.914   1.914   1.914   1.914   1.914   1.914   1.914   1.914   1.914   1.914   1.914   1.914   1.914   1.914   1.914
    70.00    1.914   1.914   1.914   1.914   1.914   1.914   1.914   1.914   1.914   1.914   1.914   1.914   1.914   1.914   1.914   1.914   1.914   1.914   1.914   1.914   1.914   1.914   1.914   1.914   1.914   1.914   1.914   1.914   1.914   1.914   1.914   1.914   1.914   1.914   1.914   1.914   1.914   1.914   1.914   1.914   1.914   1.914   1.914   1.914   1.914   1.914   1.914   1.914   1.914   1.914   1.914   1.914   1.914   1.914   1.914   1.914
    66.00    1.914   1.914   1.914   1.914   1.914   1.914   1.914   1.914   1.914   1.914   1.914   1.914   1.914   1.914   1.914   1.914   1.914   1.914   1.914   1.914   1.914   1.914   1.914   1.914   1.914   1.914   1.914   1.914   1.914   1.914   1.914   1.914   1.914   1.914   1.914   1.914   1.914   1.914   1.914   1.914   1.914   1.914   1.914   1.914   1.914   1.914   1.914   1.914   1.914   1.914   1.914   1.914   1.914   1.914   1.914   1.914
    62.00    1.914   1.914   1.914   1.914   1.914   1.914   1.914   1.914   1.914   1.914   1.914   1.914   1.914   1.914   1.914   1.914   1.914   1.914   1.914   1.914   1.914   1.914   1.914   1.914   1.914   1.914   1.914   1.914   1.914   1.914   1.914   1.914   1.914   1.914   1.914   1.914   1.914   1.914   1.914   1.914   1.914   1.914   1.914   1.914   1.914   1.914   1.914   1.914   1.914   1.914   1.914   1.914   1.914   1.914   1.914   1.914
    58.00    1.914   1.914   1.914   1.914   1.914   1.914   1.914   1.914   1.914   1.914   1.914   1.914   1.914   1.914   1.914   1.914   1.914   1.914   1.914   1.914   1.914   1.914   1.914   1.914   1.914   1.914   1.914   1.914   1.914   1.914   1.914   1.914   1.914   1.914   1.914   1.914   1.914   1.914   1.914   1.914   1.914   1.914   1.914   1.914   1.914   1.914   1.914   1.914   1.914   1.914   1.914   1.914   1.914   1.914   1.914   1.914
    54.00    1.914   1.914   1.914   1.914   1.914   1.914   1.914   1.914   1.914   1.914   1.914   1.914   1.914   1.914   1.914   1.914   1.914   1.914   1.914   1.914   1.914   1.914   1.914   1.914   1.914   1.914   1.914   1.914   1.914   1.914   1.914   1.914   1.914   1.914   1.914   1.914   1.914   1.914   1.914   1.914   1.914   1.914   1.914   1.914   1.914   1.914   1.914   1.914   1.914   1.914   1.914   1.914   1.914   1.914   1.914   1.914
    50.00    1.914   1.914   1.914   1.914   1.914   1.914   1.914   1.914   1.914   1.914   1.914   1.914   1.914   1.914   1.914   1.914   1.914   1.914   1.914   1.914   1.914   1.914   1.914   1.914   1.914   1.914   1.914   1.914   1.914   1.914   1.914   1.914   1.914   1.914   1.914   1.914   1.914   1.914   1.914   1.914   1.914   1.914   1.914   1.914   1.914   1.914   1.914   1.914   1.914   1.914   1.914   1.914   1.914   1.914   1.914   1.914
    46.00    1.914   1.914   1.914   1.914   1.914   1.914   1.914   1.914   1.914   1.914   1.914   1.914   1.914   1.914   1.914   1.914   1.914   1.914   1.914   1.914   1.914   1.914   1.914   1.914   1.914   1.914   1.914   1.914   1.914   1.914   1.914   1.914   1.914   1.914   1.914   1.914   1.914   1.914   1.914   1.914   1.914   1.914   1.914   1.914   1.914   1.914   1.914   1.914   1.914   1.914   1.914   1.914   1.914   1.914   1.914   1.914
    42.00    1.914   1.914   1.914   1.914   1.914   1.914   1.914   1.914   1.914   1.914   1.914   1.914   1.914   1.914   1.914   1.914   1.914   1.914   1.914   1.914   1.914   1.914   1.914   1.914   1.914   1.914   1.914   1.914   1.914   1.914   1.914   1.914   1.914   1.914   1.914   1.914   1.914   1.914   1.914   1.914   1.914   1.914   1.914   1.914   1.914   1.914   1.914   1.914   1.914   1.914   1.914   1.914   1.914   1.914   1.914   1.914
    38.00    1.914   1.914   1.914   1.914   1.914   1.914   1.914   1.914   1.914   1.914   1.914   1.914   1.914   1.914   1.914   1.914   1.914   1.914   1.914   1.914   1.914   1.914   1.914   1.914   1.914   1.914   1.914   1.914   1.914   1.914   1.914   1.914   1.914   1.914   1.914   1.914   1.914   1.914   1.914   1.914   1.914   1.914   1.914   1.914   1.914   1.914   1.914   1.914   1.914   1.914   1.914   1.914   1.914   1.914   1.914   1.914
    34.00    1.914   1.914   1.914   1.914   1.914   1.914   1.914   1.914   1.914   1.914   1.914   1.914   1.914   1.914   1.914   1.914   1.914   1.914   1.914   1.914   1.914   1.914   1.914   1.914   1.914   1.914   1.914   1.914   1.914   1.914   1.914   1.914   1.914   1.914   1.914   1.914   1.914   1.914   1.914   1.914   1.914   1.914   1.914   1.914   1.914   1.914   1.914   1.914   1.914   1.914   1.914   1.914   1.914   1.914   1.914   1.914
    30.00    1.914   1.914   1.914   1.914   1.914   1.914   1.914   1.914   1.914   1.914   1.914   1.914   1.914   1.914   1.914   1.914   1.914   1.914   1.914   1.914   1.914   1.914   1.914   1.914   1.914   1.914   1.914   1.914   1.914   1.914   1.914   1.914   1.914   1.914   1.914   1.914   1.914   1.914   1.914   1.914   1.914   1.914   1.914   1.914   1.914   1.914   1.914   1.914   1.914   1.914   1.914   1.914   1.914   1.914   1.914   1.914

   Mean standard deviation across all grid points:
      u component:    3.927 m/s
      v component:    3.105 m/s
      w component:    1.914 m/s


U-component (X) statistics from the interpolated hub point:

   Mean =  24.9996 m/s
   TI   =  15.4468 %

Nyquist frequency of turbulent wind field =        10.000 Hz


Processing complete.  4108.8 CPU seconds used.
