
This summary file was generated by TurbSim (v1.50, 25-Sep-2009) on 16-Nov-2024 at 15:38:41.


Runtime Options:

1141480904  Random seed #1
    RANLUX  Type of random number generator
         F  Output binary HH turbulence parameters?
         F  Output formatted turbulence parameters?
         F  Output AeroDyn HH files?
         T  Output AeroDyn FF files?
         T  Output BLADED FF files?
         F  Output tower data?
         F  Output formatted FF files?
         F  Output coherent turbulence time step file?
         T  Clockwise rotation when looking downwind?
 0 -  NONE  IEC turbulence models scaled to exact specified standard deviation


Turbine/Model Specifications:

        56  Vertical grid-point matrix dimension
        56  Horizontal grid-point matrix dimension
     0.050  Time step [seconds]
    30.000  Analysis time [seconds]
    20.000  Usable output time [seconds]
   140.000  Hub height [m]
   220.000  Grid height [m]
   220.000  Grid width [m]
     0.000  Vertical flow angle [degrees]
     0.000  Horizontal flow angle [degrees]


Meteorological Boundary Conditions:

    IECKAI  IEC Kaimal spectral model
         1  IEC standard: IEC 61400-1 Ed. 3: 2005
         B  IEC turbulence characteristic
      3ETM  IEC Extreme Turbulence Model
     2.000  IEC Extreme Turbulence Model (ETM) "c" parameter [m/s]
       IEC  Wind profile type
   140.000  Reference height [m]
    13.000  Reference wind speed [m/s]
       N/A  Jet height [m]
     0.200  Power law exponent
     0.030  Surface roughness length [m]


You have requested that the following file(s) be generated:

   .\TurbSim.bts (AeroDyn/TurbSim full-field wind file)
   .\TurbSim.wnd (AeroDyn/BLADED full-field wnd file)


Turbulence Simulation Scaling Parameter Summary:

   Turbulence model used                            =  IEC Kaimal
   Turbulence characteristic                        =  3B
   IEC turbulence type                              =  Extreme Turbulence Model
   Reference wind speed average over 10 minutes     =   37.500 m/s
   Annual wind speed average at hub height          =    7.500 m/s
   IEC standard                                     =  IEC 61400-1 Ed. 3: 2005
   Mean wind speed at hub height                    =   13.000 m/s
   Expected value of turbulence intensity at 15 m/s =   14.000%
   Characteristic value of standard deviation       =    3.140 m/s
   Turbulence scale                                 =   42.000 m
   u-component integral scale                       =  340.200 m
   Coherency scale                                  =  340.200 m
   Characteristic value of hub turbulence intensity =   24.155%
   Gradient Richardson number                       =    0.000

   Wind profile type                                =  Power law on rotor disk, logarithmic elsewhere
   Power law exponent                               =    0.200
   Mean shear across rotor disk                     =    0.023 (m/s)/m
   Assumed rotor diameter                           =  220.000 m
   Surface roughness length                         =    0.030 m

   Number of time steps in the FFT                  =      748
   Number of time steps output                      =      739


Mean Flow Angles:

   Vertical   =   0.0 degrees
   Horizontal =   0.0 degrees

Mean Wind Speed Profile:

   Height    Wind Speed   Horizontal Angle  U-comp (X)   V-comp (Y)   W-comp (Z)
     (m)        (m/s)         (degrees)       (m/s)        (m/s)        (m/s)   
   ------    ----------   ----------------  ----------   ----------   ----------
    250.0       14.60            0.00         14.60         0.00         0.00
    246.0       14.55            0.00         14.55         0.00         0.00
    242.0       14.50            0.00         14.50         0.00         0.00
    238.0       14.46            0.00         14.46         0.00         0.00
    234.0       14.41            0.00         14.41         0.00         0.00
    230.0       14.36            0.00         14.36         0.00         0.00
    226.0       14.31            0.00         14.31         0.00         0.00
    222.0       14.26            0.00         14.26         0.00         0.00
    218.0       14.20            0.00         14.20         0.00         0.00
    214.0       14.15            0.00         14.15         0.00         0.00
    210.0       14.10            0.00         14.10         0.00         0.00
    206.0       14.04            0.00         14.04         0.00         0.00
    202.0       13.99            0.00         13.99         0.00         0.00
    198.0       13.93            0.00         13.93         0.00         0.00
    194.0       13.88            0.00         13.88         0.00         0.00
    190.0       13.82            0.00         13.82         0.00         0.00
    186.0       13.76            0.00         13.76         0.00         0.00
    182.0       13.70            0.00         13.70         0.00         0.00
    178.0       13.64            0.00         13.64         0.00         0.00
    174.0       13.58            0.00         13.58         0.00         0.00
    170.0       13.51            0.00         13.51         0.00         0.00
    166.0       13.45            0.00         13.45         0.00         0.00
    162.0       13.39            0.00         13.39         0.00         0.00
    158.0       13.32            0.00         13.32         0.00         0.00
    154.0       13.25            0.00         13.25         0.00         0.00
    150.0       13.18            0.00         13.18         0.00         0.00
    146.0       13.11            0.00         13.11         0.00         0.00
    142.0       13.04            0.00         13.04         0.00         0.00
    140.0       13.00            0.00         13.00         0.00         0.00
    138.0       12.96            0.00         12.96         0.00         0.00
    134.0       12.89            0.00         12.89         0.00         0.00
    130.0       12.81            0.00         12.81         0.00         0.00
    126.0       12.73            0.00         12.73         0.00         0.00
    122.0       12.65            0.00         12.65         0.00         0.00
    118.0       12.56            0.00         12.56         0.00         0.00
    114.0       12.48            0.00         12.48         0.00         0.00
    110.0       12.39            0.00         12.39         0.00         0.00
    106.0       12.30            0.00         12.30         0.00         0.00
    102.0       12.20            0.00         12.20         0.00         0.00
     98.0       12.10            0.00         12.10         0.00         0.00
     94.0       12.00            0.00         12.00         0.00         0.00
     90.0       11.90            0.00         11.90         0.00         0.00
     86.0       11.79            0.00         11.79         0.00         0.00
     82.0       11.68            0.00         11.68         0.00         0.00
     78.0       11.56            0.00         11.56         0.00         0.00
     74.0       11.44            0.00         11.44         0.00         0.00
     70.0       11.32            0.00         11.32         0.00         0.00
     66.0       11.18            0.00         11.18         0.00         0.00
     62.0       11.05            0.00         11.05         0.00         0.00
     58.0       10.90            0.00         10.90         0.00         0.00
     54.0       10.74            0.00         10.74         0.00         0.00
     50.0       10.58            0.00         10.58         0.00         0.00
     46.0       10.41            0.00         10.41         0.00         0.00
     42.0       10.22            0.00         10.22         0.00         0.00
     38.0       10.02            0.00         10.02         0.00         0.00
     34.0        9.80            0.00          9.80         0.00         0.00
     30.0        9.55            0.00          9.55         0.00         0.00


Harvested Random Seeds after Generation of the Random Numbers:

     32703860 K1
            0 K2


Hub-Height Simulated Turbulence Statistical Summary:

   Type of Wind        Min (m/s)   Mean (m/s)    Max (m/s)  Sigma (m/s)       TI (%)
   ----------------    ---------   ----------    ---------  -----------       ------
   Longitudinal (u)         6.53        13.00        18.21        2.094       16.106
   Lateral (v)             -5.89         0.00         5.13        2.053       15.791
   Vertical (w)            -4.01         0.00         3.75        1.454       11.183
   U component              6.53        13.00        18.21        2.094       16.106
   V component             -5.89         0.00         5.13        2.053       15.791
   W component             -4.01         0.00         3.75        1.454       11.183
   Horizontal (U&V)         6.57        13.17        18.51        2.067       15.702
   Total                    7.09        13.25        18.51        2.012       15.181

                       Min Reynolds     Mean Reynolds    Max Reynolds    Correlation
   Product             Stress (m/s)^2   Stress (m/s)^2   Stress (m/s)^2  Coefficient
   ----------------    --------------   --------------   --------------  -----------
   u'w'                    -19.829            -1.385             7.749        -0.455
   u'v'                    -11.444             2.042            20.764         0.475
   v'w'                    -11.204            -0.730             8.728        -0.245


   Friction Velocity (Ustar)  =      1.177 m/s
   Maximum Instantaneous TKE  =     25.734 (m/s)^2
   Maximum Instantaneous CTKE =     11.985 (m/s)^2


Grid Point Variance Summary:

   Y-coord -110.00 -106.00 -102.00  -98.00  -94.00  -90.00  -86.00  -82.00  -78.00  -74.00  -70.00  -66.00  -62.00  -58.00  -54.00  -50.00  -46.00  -42.00  -38.00  -34.00  -30.00  -26.00  -22.00  -18.00  -14.00  -10.00   -6.00   -2.00    2.00    6.00   10.00   14.00   18.00   22.00   26.00   30.00   34.00   38.00   42.00   46.00   50.00   54.00   58.00   62.00   66.00   70.00   74.00   78.00   82.00   86.00   90.00   94.00   98.00  102.00  106.00  110.00

   Height   Standard deviation at grid points for the u component:
   250.00    1.741   1.881   1.599   1.554   1.737   2.142   1.840   1.762   2.085   1.772   2.429   2.527   2.723   2.233   1.792   1.538   1.443   1.583   1.464   1.820   2.006   1.872   1.846   2.260   2.329   1.951   1.976   2.388   2.397   1.989   1.953   1.891   1.450   1.668   1.746   1.578   1.852   2.010   2.147   2.040   2.011   1.711   1.775   1.420   1.888   1.591   1.918   2.026   2.153   2.037   2.502   2.644   2.379   2.386   2.893   2.849
   246.00    1.576   1.577   1.527   1.974   1.752   1.757   1.891   1.968   2.258   2.229   2.156   2.562   2.745   2.107   1.423   1.351   1.585   1.377   1.272   1.678   2.072   1.592   2.170   2.346   2.110   2.472   2.508   2.345   2.257   1.974   2.063   1.758   2.078   1.712   2.098   1.819   2.170   1.826   1.851   2.054   2.157   1.665   1.913   1.698   1.909   1.997   1.865   1.961   1.809   2.220   2.326   2.348   2.502   2.474   2.391   2.433
   242.00    1.648   1.570   1.856   1.831   1.411   1.502   1.653   1.962   1.743   2.119   2.262   2.259   2.351   1.802   1.652   1.668   1.577   1.146   1.629   1.471   1.688   1.694   1.650   1.929   2.524   2.183   2.277   1.937   1.808   1.833   2.175   1.966   2.268   2.118   1.994   1.845   1.810   1.743   1.881   1.823   1.918   2.480   1.935   1.954   1.901   1.702   1.668   1.911   2.150   1.743   2.477   2.164   2.587   2.474   2.404   1.794
   238.00    1.698   1.748   1.978   1.739   1.612   1.669   1.724   1.976   1.414   1.608   1.999   2.186   2.252   2.074   2.027   1.513   1.630   1.432   1.607   1.694   1.378   1.519   1.584   1.562   2.172   2.490   2.730   2.646   2.027   2.242   1.966   1.847   2.149   2.714   2.347   1.663   1.973   1.676   1.482   1.622   2.114   2.421   2.558   2.209   1.828   1.688   1.798   1.997   2.323   2.038   2.265   2.421   1.958   2.081   1.978   1.678
   234.00    1.552   1.689   1.471   1.683   1.716   1.736   1.737   1.519   1.314   1.927   2.027   1.694   1.977   1.819   1.755   1.868   1.693   1.727   1.824   1.671   1.616   1.506   1.319   1.745   2.097   2.238   2.058   2.034   2.292   1.935   1.576   1.732   2.363   2.500   2.225   2.235   2.102   1.802   1.812   1.671   1.854   2.356   2.198   2.060   1.858   1.591   1.653   1.816   1.957   1.930   1.930   1.872   2.026   1.780   1.483   2.000
   230.00    1.518   1.244   1.575   1.382   1.321   1.360   1.381   1.482   1.381   1.656   1.814   1.522   1.556   1.740   1.595   1.635   1.634   1.814   1.790   1.871   1.601   1.407   1.390   1.369   1.787   1.635   2.119   2.446   1.942   1.712   2.022   2.148   2.462   2.687   1.963   1.729   2.167   1.658   1.425   1.586   1.791   1.851   1.835   1.826   1.401   1.832   1.939   1.748   1.643   1.634   1.660   1.428   1.728   1.433   1.802   2.202
   226.00    1.887   1.409   1.524   1.758   1.489   1.332   1.206   1.427   1.545   1.745   1.410   1.715   1.637   1.601   1.487   1.899   1.938   1.598   1.605   1.743   1.578   1.360   1.414   1.335   1.729   1.868   2.000   2.016   1.738   1.979   2.150   2.370   2.444   2.467   2.119   1.961   2.211   1.690   1.736   1.586   1.782   1.920   1.815   1.632   1.912   1.770   1.850   1.668   1.690   1.716   1.477   1.577   2.012   2.155   2.183   2.013
   222.00    1.795   1.820   1.368   1.708   1.623   1.695   1.567   1.447   1.610   1.667   1.477   1.452   1.810   1.832   2.291   1.871   1.730   1.760   1.879   1.473   1.488   1.187   1.352   1.561   1.853   1.934   1.650   1.755   1.416   1.696   1.889   2.170   2.355   2.367   1.970   2.298   2.262   1.957   1.844   1.665   1.871   1.942   1.619   1.640   2.066   2.073   1.907   1.859   1.818   1.686   1.339   1.606   1.803   1.856   2.150   2.247
   218.00    1.757   1.737   1.574   1.759   1.573   1.683   2.082   1.556   1.516   1.667   1.660   1.849   1.611   1.829   2.299   2.247   1.590   1.565   1.660   1.710   1.858   1.342   1.547   1.732   1.876   1.843   1.843   1.577   1.387   1.724   2.163   2.300   2.316   2.416   2.104   2.466   2.291   2.296   1.700   1.591   1.788   1.655   1.597   1.658   2.336   2.238   1.920   2.049   2.035   1.841   1.507   1.591   1.871   1.812   2.137   2.525
   214.00    1.637   1.664   1.510   1.445   1.806   1.713   1.875   1.854   1.865   1.636   1.781   1.530   1.461   1.767   2.248   2.112   1.891   1.862   1.724   1.667   1.918   2.061   1.865   1.816   1.784   1.875   1.637   1.856   1.608   1.793   1.975   2.143   2.381   2.421   2.016   2.469   1.975   2.069   1.811   1.877   1.907   1.822   1.621   1.798   2.143   2.483   1.887   2.061   2.194   2.048   1.756   1.635   1.653   1.780   2.157   2.065
   210.00    2.357   2.066   1.784   1.520   1.848   1.790   1.498   1.727   1.872   1.695   1.588   1.677   1.868   1.979   2.091   2.017   1.845   2.057   1.870   1.526   1.772   1.946   1.848   2.180   2.014   2.066   1.620   1.643   1.719   2.022   2.301   2.595   2.497   2.581   2.654   2.664   1.900   2.099   1.991   2.173   2.131   2.048   2.098   2.170   1.994   2.647   2.095   2.014   2.230   1.926   1.586   1.421   1.553   1.502   1.721   1.859
   206.00    2.247   1.905   1.851   1.542   1.998   2.095   1.743   1.546   1.720   1.513   1.375   1.695   1.705   1.689   1.744   1.972   2.174   1.966   1.680   1.671   2.024   2.084   2.042   1.922   2.136   1.829   1.779   1.461   1.810   2.047   2.291   2.651   2.772   2.642   2.176   2.321   1.879   2.392   2.518   2.059   2.124   2.246   2.098   2.693   2.946   2.851   2.051   1.886   2.045   2.020   1.616   1.495   1.134   1.592   1.579   1.417
   202.00    2.194   1.554   1.502   1.754   2.035   1.777   1.629   1.373   1.646   1.328   1.447   1.611   2.063   1.592   1.562   1.954   1.868   1.862   1.832   2.092   1.978   1.817   1.672   1.465   1.987   1.990   1.966   1.633   1.607   2.100   2.156   2.699   2.530   2.516   2.143   2.179   2.108   2.034   2.241   2.188   2.348   2.284   2.276   2.263   2.841   2.649   2.071   1.952   1.819   1.734   1.674   1.570   1.469   1.711   1.894   1.558
   198.00    2.277   1.941   1.931   1.838   1.956   1.832   1.548   1.468   1.490   1.512   1.875   1.889   2.232   1.983   1.817   1.853   1.940   1.700   2.083   2.264   2.262   2.223   2.181   2.046   1.894   2.355   1.908   1.735   1.760   1.730   2.308   2.567   2.165   2.328   2.487   1.746   2.068   1.921   1.881   1.704   1.941   1.859   1.893   1.769   2.235   2.503   2.311   2.358   2.176   1.676   1.643   1.332   1.591   1.740   1.891   1.744
   194.00    2.474   2.696   2.470   1.840   1.726   1.893   2.061   1.617   1.700   2.032   2.485   2.051   2.219   2.122   2.304   1.956   1.990   2.121   2.563   2.128   2.591   2.028   1.992   2.082   2.324   2.606   2.226   1.928   1.824   1.946   2.243   2.357   2.535   2.649   2.381   1.935   1.921   2.173   1.567   1.502   1.793   1.914   1.621   1.546   1.764   2.081   2.331   2.137   2.276   1.962   1.628   1.473   1.767   2.177   1.835   1.877
   190.00    2.599   2.444   2.029   1.729   1.877   1.891   1.964   1.912   1.767   1.638   2.324   2.516   1.873   2.388   2.617   2.382   1.896   2.451   2.586   2.066   2.382   1.995   1.702   1.719   1.827   2.324   2.344   2.463   2.268   2.334   2.290   1.770   2.253   2.274   2.071   2.245   1.885   1.616   1.779   1.708   2.145   1.748   1.736   1.886   1.829   1.999   2.051   1.948   1.886   1.681   1.578   1.504   1.824   2.175   1.852   2.255
   186.00    2.413   1.971   1.994   2.020   1.977   1.686   1.648   1.705   1.495   1.757   2.312   2.281   1.981   2.042   2.364   2.036   2.151   1.985   2.152   2.319   2.113   1.913   1.669   2.050   2.131   2.178   2.683   2.910   2.687   2.062   1.799   2.161   2.135   2.304   2.664   2.346   1.712   1.645   1.597   1.483   2.093   1.674   2.054   1.804   1.882   1.963   1.553   1.591   1.769   1.729   1.509   1.531   1.534   1.846   2.297   2.114
   182.00    2.204   2.065   2.023   2.134   1.973   1.453   1.668   1.798   1.618   1.757   1.904   2.049   1.584   1.765   1.829   1.585   2.007   1.977   2.152   2.435   2.202   1.970   2.186   2.599   2.756   2.712   2.662   2.762   2.441   2.228   2.093   1.987   2.228   2.298   2.365   2.059   1.857   1.939   1.781   1.932   2.101   2.320   2.170   1.885   1.562   1.717   1.387   1.681   1.648   1.904   1.616   1.633   1.532   1.715   1.794   2.040
   178.00    1.916   1.916   1.895   1.848   1.361   1.480   1.507   1.789   1.629   1.854   1.913   1.551   1.370   1.432   1.597   1.821   1.608   1.684   2.009   2.086   2.253   2.404   2.240   1.922   2.320   1.896   2.106   2.475   2.805   2.976   2.414   1.603   1.965   2.120   1.845   1.752   1.470   1.493   1.769   2.006   1.664   2.060   1.991   2.160   2.036   1.822   1.596   1.725   1.662   1.972   1.823   1.578   1.704   1.730   1.737   1.772
   174.00    1.831   1.913   1.542   1.775   1.250   1.380   1.485   1.841   1.966   2.222   1.872   1.583   1.834   1.723   1.747   1.592   2.032   2.025   1.924   2.233   1.837   2.128   2.512   2.259   2.365   2.083   2.311   2.106   2.320   2.495   2.343   2.341   1.990   1.854   1.506   1.389   1.483   1.594   1.610   1.681   1.964   1.876   1.945   1.854   1.940   1.958   1.994   1.681   2.218   1.894   2.159   1.511   1.286   1.523   1.546   1.732
   170.00    1.383   1.640   1.773   1.444   1.590   1.691   1.635   2.248   2.504   2.317   2.282   1.864   1.720   1.807   1.764   1.684   2.243   1.746   1.711   1.933   1.952   2.177   2.420   2.724   2.653   2.648   2.680   2.783   2.341   2.650   2.310   2.329   2.033   1.624   1.818   1.414   1.548   1.482   1.545   1.537   1.694   1.884   2.077   2.271   2.216   1.575   1.990   1.844   2.002   2.215   2.243   1.595   1.380   1.420   1.688   1.645
   166.00    1.601   1.572   1.254   1.676   1.855   1.999   2.147   2.183   2.599   2.649   2.108   1.860   1.717   1.623   1.431   1.784   2.074   2.054   1.363   1.526   1.525   1.722   2.251   2.168   2.048   2.274   2.615   2.302   2.017   2.273   2.137   2.051   1.981   1.900   1.640   1.431   1.511   1.793   1.590   1.297   1.474   1.760   1.926   1.847   1.899   1.737   2.088   2.081   1.791   2.121   2.202   2.272   1.786   1.649   1.405   1.742
   162.00    1.892   1.676   1.933   1.573   2.017   1.671   1.865   2.416   2.718   2.596   2.176   1.792   1.843   1.501   1.587   2.052   1.622   1.765   1.375   1.198   1.352   1.781   2.058   2.059   2.221   2.181   2.423   2.392   2.551   2.131   2.014   1.724   1.560   1.589   1.892   1.492   1.787   2.030   2.238   1.485   1.404   1.592   1.471   1.806   1.987   1.974   2.113   2.000   2.119   1.816   1.919   2.058   1.979   1.641   1.446   1.955
   158.00    2.179   1.877   2.061   1.832   1.768   1.676   1.632   2.332   2.895   2.550   2.006   1.986   2.038   1.770   2.224   2.304   2.136   1.675   1.504   1.688   1.616   2.013   1.904   2.012   2.265   2.089   2.487   2.342   2.206   2.106   2.266   2.214   1.751   1.625   1.973   1.460   1.644   1.408   1.962   2.084   1.773   1.787   1.692   1.394   1.675   1.692   1.909   1.645   2.074   2.174   2.019   1.885   1.905   1.752   2.362   2.237
   154.00    2.058   1.642   1.985   1.756   2.209   2.211   2.114   2.719   2.804   2.966   2.300   2.348   2.351   2.108   2.318   1.917   1.905   1.490   1.744   1.344   1.499   1.746   1.593   1.719   1.966   1.843   2.426   2.876   2.409   2.018   1.807   2.023   1.822   1.718   1.872   2.086   1.531   1.500   1.555   1.667   1.961   1.887   1.667   1.722   1.476   1.676   1.818   1.634   2.102   2.084   2.120   1.652   1.455   1.580   2.129   2.416
   150.00    2.247   2.073   1.664   1.894   1.792   1.906   2.057   2.391   2.644   2.846   2.357   2.098   2.172   1.990   2.418   2.588   2.044   1.833   1.804   1.469   1.628   1.650   1.286   1.173   1.430   1.836   2.547   2.504   2.894   2.673   2.453   1.922   1.850   1.537   1.581   1.737   1.404   1.488   1.597   1.856   1.463   1.911   1.596   1.170   1.592   1.818   1.961   2.040   2.216   1.858   2.075   2.247   1.499   1.380   1.675   1.895
   146.00    1.839   1.785   1.623   2.058   1.749   1.720   2.093   2.353   2.549   2.819   2.446   2.341   2.171   2.073   2.377   2.238   1.846   1.746   1.503   1.426   1.303   1.440   1.606   1.904   1.969   2.094   2.394   2.552   2.809   2.842   2.745   2.044   1.611   1.736   1.535   1.612   1.908   1.455   1.570   1.886   1.894   1.988   1.894   1.365   1.620   1.903   2.210   2.150   2.040   1.951   1.827   2.025   1.667   1.601   1.825   1.822
   142.00    1.932   1.558   1.901   2.341   1.779   2.014   2.238   2.455   2.612   2.192   2.596   2.530   2.658   2.345   2.312   1.975   1.685   1.246   1.391   1.663   1.330   1.396   1.609   1.980   2.309   1.867   1.998   2.098   2.210   2.102   2.349   2.118   1.917   1.776   1.553   1.629   1.950   1.614   1.722   1.437   2.054   2.096   1.842   1.519   2.100   2.236   2.311   2.365   1.982   1.920   2.017   2.577   2.069   2.021   2.049   2.040
   138.00    1.596   1.664   2.127   2.297   1.695   1.932   1.812   2.545   2.050   2.142   2.398   2.528   2.394   2.124   2.071   1.530   1.460   1.631   1.396   1.487   1.677   1.905   2.380   2.299   2.147   2.501   2.228   1.794   1.651   2.242   1.941   2.263   1.660   1.635   1.437   1.678   1.778   1.391   1.492   1.780   2.100   1.878   1.787   1.652   2.429   2.079   1.942   2.245   2.395   2.493   2.457   2.417   2.326   1.740   1.792   1.877
   134.00    1.926   1.706   2.122   2.293   1.852   1.893   1.758   2.173   2.126   2.241   2.274   2.461   1.994   2.268   1.930   1.731   1.799   1.419   1.513   1.541   2.070   2.406   2.382   2.336   2.485   2.643   2.655   2.129   1.907   2.099   1.847   2.235   2.091   1.746   1.596   1.558   1.939   2.147   1.663   1.544   2.206   2.170   1.963   2.403   2.743   2.608   2.421   2.079   2.561   2.395   2.351   2.087   1.887   1.977   1.661   1.521
   130.00    1.826   1.750   1.871   2.410   2.778   2.145   1.686   1.941   1.808   1.789   2.311   2.386   2.068   1.945   2.136   2.400   1.798   1.359   1.630   1.842   1.658   2.114   2.336   1.756   2.001   1.925   2.504   2.797   2.068   2.044   2.178   2.241   2.090   1.520   1.321   1.491   1.961   1.624   1.612   1.587   2.172   2.371   2.736   2.435   3.031   2.656   2.250   2.070   2.165   2.152   2.130   1.780   1.987   1.757   1.984   1.692
   126.00    1.852   2.095   2.244   2.599   2.705   2.581   1.794   1.890   2.142   2.188   1.927   2.104   2.128   2.178   2.629   2.717   2.155   1.765   1.582   2.051   2.073   2.041   2.139   2.235   2.339   2.254   2.593   2.584   2.083   2.348   2.044   2.108   1.446   1.546   1.944   2.200   1.733   2.109   1.895   2.003   2.028   1.960   2.373   2.807   3.153   2.895   2.180   2.377   2.279   1.994   2.151   2.118   2.054   2.038   2.127   2.261
   122.00    1.853   2.008   1.845   2.178   2.322   1.891   1.775   1.611   1.881   2.077   2.205   2.369   2.478   2.902   3.150   2.510   2.467   2.193   2.232   2.084   2.699   2.488   2.260   2.165   2.434   2.765   2.175   2.174   1.979   2.224   1.537   1.728   1.560   1.827   2.012   1.938   2.079   1.938   2.186   2.051   1.980   1.895   2.284   2.584   2.519   2.352   2.474   2.019   1.819   1.515   1.524   1.782   1.687   1.461   1.813   2.361
   118.00    2.086   2.197   1.913   2.027   2.077   2.159   1.846   1.663   2.194   2.138   2.077   2.935   2.734   3.058   2.627   2.520   2.929   2.554   2.388   2.502   2.678   2.894   2.632   2.502   2.291   2.529   2.076   2.433   2.559   2.392   1.585   1.612   1.426   2.019   1.504   2.013   2.167   1.988   2.010   1.797   1.955   1.961   2.275   2.358   1.913   1.686   1.919   1.855   1.252   1.414   1.691   1.683   1.722   1.745   1.939   2.100
   114.00    2.022   2.074   2.364   2.300   2.110   2.334   2.179   1.669   2.123   2.425   2.254   2.706   2.654   2.959   2.747   3.045   2.711   2.569   2.917   3.339   3.409   2.731   3.080   2.471   2.531   2.499   1.820   2.229   2.396   2.291   1.626   1.715   1.942   2.212   1.760   1.851   1.861   2.082   1.870   1.982   2.140   2.060   2.049   1.798   1.406   1.516   1.342   1.403   1.396   1.432   1.850   1.901   1.598   1.879   1.800   1.781
   110.00    2.015   2.225   2.434   2.218   2.243   2.329   2.558   2.301   1.987   1.832   1.750   2.319   2.578   2.673   2.739   2.952   3.393   2.627   2.564   2.758   3.082   2.934   2.778   2.529   2.332   2.076   1.706   2.014   2.219   2.456   1.819   1.839   1.892   2.099   1.511   1.676   1.980   2.025   2.214   2.445   2.737   2.613   2.107   1.825   1.419   1.426   1.253   1.316   1.508   1.530   2.014   2.101   1.950   1.908   1.690   1.760
   106.00    1.556   1.605   1.822   1.996   2.033   2.141   2.187   2.615   2.165   2.516   2.099   2.515   2.015   2.199   2.468   2.650   2.818   2.703   2.206   2.643   2.909   2.904   2.411   2.257   2.002   2.329   2.288   1.831   1.825   2.167   1.859   1.722   1.749   2.047   2.070   1.598   2.070   2.317   2.562   2.852   2.383   2.441   1.829   1.621   1.748   1.629   1.646   1.434   1.705   1.464   1.606   1.849   1.816   1.695   1.778   1.596
   102.00    1.578   1.846   1.760   1.879   1.728   1.840   2.075   2.124   2.421   2.335   2.843   2.582   2.114   2.223   2.228   1.939   2.444   2.044   2.575   2.601   2.772   2.143   2.250   2.393   2.187   2.257   1.935   1.926   2.174   2.237   2.059   1.476   1.478   1.469   1.726   1.614   2.201   1.952   2.288   2.784   2.933   2.643   2.070   1.705   1.863   1.916   1.569   1.294   1.554   1.545   1.678   1.744   1.670   1.404   1.600   1.750
    98.00    1.794   1.916   1.700   2.106   2.119   1.641   1.755   2.105   2.527   2.472   2.717   2.828   2.609   2.270   1.755   1.968   2.232   2.084   2.735   2.590   2.688   2.581   1.841   1.921   1.569   2.344   2.457   2.575   2.203   1.990   1.842   1.405   1.484   1.662   1.669   1.696   2.555   2.110   2.536   2.791   2.359   2.674   2.380   2.405   2.057   2.081   1.534   1.313   1.448   2.010   1.604   1.822   1.871   1.651   1.543   1.638
    94.00    1.707   2.141   2.413   2.033   1.904   1.568   1.932   1.985   2.599   2.354   2.701   2.721   2.722   2.212   1.671   1.691   1.796   2.273   2.467   2.841   2.714   2.231   2.156   1.799   1.945   2.378   2.321   2.208   2.458   2.417   1.581   1.579   1.452   1.580   1.895   2.509   2.733   2.287   2.495   2.344   2.226   2.268   2.269   2.431   2.169   1.676   1.871   1.626   1.531   1.937   2.056   1.803   1.529   1.622   1.840   1.892
    90.00    2.036   2.490   2.202   2.130   1.848   1.998   2.162   2.206   2.886   2.478   2.722   2.643   2.537   1.961   1.967   1.962   1.922   2.229   2.274   2.719   2.381   2.339   2.499   2.058   2.338   1.958   2.453   2.240   2.627   2.089   1.813   1.576   1.453   1.630   1.896   2.146   2.539   2.605   2.362   2.808   2.410   2.415   1.968   1.932   1.610   1.295   1.438   1.274   1.747   1.722   1.820   1.778   1.582   1.693   1.655   1.753
    86.00    2.438   2.115   2.044   1.916   1.834   1.720   2.383   3.064   3.102   2.816   3.023   2.920   2.521   2.031   2.557   2.287   2.074   2.733   2.610   2.387   2.816   3.068   2.339   2.378   2.672   2.291   2.023   2.437   2.339   2.473   1.869   1.395   1.441   1.677   1.741   2.333   2.397   2.489   2.232   2.459   2.315   2.448   2.349   1.978   1.596   1.338   1.482   1.511   1.685   1.769   1.652   2.060   1.974   1.315   1.517   2.115
    82.00    2.214   1.900   1.543   1.423   1.386   1.436   2.279   2.711   3.161   3.040   3.061   3.135   2.723   2.211   1.764   2.551   2.764   2.665   2.764   2.477   2.793   2.533   2.594   2.349   2.447   2.243   2.199   2.443   2.452   2.285   1.712   1.270   1.345   1.554   1.999   2.051   2.475   1.980   2.264   2.504   1.903   2.068   2.267   1.833   1.608   1.754   1.881   1.630   1.554   1.786   1.615   1.730   1.497   1.611   1.728   2.138
    78.00    1.801   1.999   1.650   1.407   1.851   1.565   2.036   2.502   2.783   2.972   2.855   2.651   2.854   2.504   1.926   2.284   2.537   2.140   1.897   2.417   2.789   2.728   2.190   2.240   2.099   2.119   2.328   2.078   2.288   1.756   2.024   1.462   1.436   1.424   1.970   2.234   1.874   2.378   1.950   2.188   1.944   1.872   2.261   1.966   1.698   1.663   1.558   1.683   1.677   1.821   1.792   1.755   1.660   1.540   1.900   2.401
    74.00    1.535   1.596   2.014   1.933   2.130   2.020   1.869   2.221   2.230   2.846   2.692   3.039   2.986   2.263   1.972   1.803   1.937   2.163   2.052   1.986   2.215   2.394   2.075   2.158   2.221   2.184   2.356   1.870   2.137   1.946   2.084   1.546   1.538   1.201   1.598   1.874   2.126   2.174   2.137   2.058   1.727   1.622   2.049   2.063   1.950   1.741   1.800   1.520   1.665   1.398   1.876   2.034   1.816   1.569   2.150   2.371
    70.00    1.724   1.881   2.088   1.797   1.864   1.843   2.224   2.334   2.580   3.032   2.922   2.977   2.680   2.486   1.884   1.995   1.990   2.000   1.808   1.535   1.664   1.881   1.920   2.013   2.173   2.377   2.311   2.249   2.159   1.968   2.325   1.573   1.925   1.770   1.924   2.036   1.860   1.683   1.602   1.522   1.694   1.959   1.861   1.861   1.561   1.495   1.697   1.811   1.817   1.799   1.866   1.762   1.878   1.313   1.658   2.158
    66.00    1.787   2.267   1.971   1.926   1.568   2.074   2.152   2.451   2.701   2.716   2.555   2.980   2.519   2.568   1.969   1.730   1.951   2.194   1.958   1.963   2.016   1.558   1.582   2.305   1.830   1.647   2.208   2.391   2.063   1.747   2.220   1.677   1.999   1.998   2.182   1.745   1.813   1.600   1.711   1.527   1.725   1.816   1.636   1.842   1.985   2.069   1.650   1.677   1.498   1.408   1.301   1.816   1.975   1.799   1.970   2.012
    62.00    2.212   2.396   2.310   2.513   1.887   2.319   2.078   2.485   2.501   2.110   2.412   2.980   3.125   2.770   2.211   2.079   1.995   2.139   1.706   1.808   1.709   1.990   1.711   2.074   2.210   1.908   2.025   2.302   1.884   1.649   2.001   1.969   2.222   2.219   1.989   2.122   1.739   1.579   1.539   1.440   1.667   1.647   1.699   1.544   1.830   1.603   1.790   1.593   1.445   1.464   1.588   2.104   2.143   2.508   2.215   2.571
    58.00    2.123   2.516   2.009   2.209   1.999   1.915   2.422   2.203   2.248   2.243   1.886   2.336   2.690   2.592   2.345   2.232   2.200   1.953   1.983   1.783   1.821   2.329   2.124   1.683   2.031   1.976   1.743   2.262   1.991   1.962   1.864   1.712   1.881   1.654   2.252   2.089   1.896   1.702   1.453   2.001   1.575   1.399   1.383   1.385   1.559   1.555   1.177   1.396   1.429   1.525   1.749   1.958   2.189   2.060   2.565   2.193
    54.00    2.340   2.852   2.600   2.208   2.233   2.101   2.146   2.342   1.918   1.814   1.613   1.618   2.061   1.840   2.236   2.684   2.896   2.343   2.419   2.682   2.475   2.607   2.526   1.954   2.311   1.720   1.741   1.802   1.962   1.989   1.649   1.801   2.285   1.860   2.566   2.191   2.373   2.035   2.033   2.171   1.536   1.421   1.136   1.449   1.677   1.684   1.846   1.326   1.444   1.782   1.888   1.908   1.889   2.114   2.151   2.650
    50.00    2.372   2.599   2.878   2.886   2.729   2.539   2.615   2.446   2.091   2.049   1.530   1.586   1.838   1.933   1.921   2.151   2.370   2.252   2.322   2.662   2.390   2.444   2.094   1.786   2.289   1.621   1.340   1.723   1.628   1.929   1.828   1.987   2.290   2.079   2.148   2.476   2.041   2.042   2.186   1.960   1.550   1.418   1.279   1.195   1.718   1.865   1.780   1.688   1.372   1.465   2.105   1.761   1.987   1.852   1.851   2.378
    46.00    2.138   2.906   2.744   2.843   2.495   2.374   2.365   2.735   2.613   2.064   1.754   2.175   2.207   1.877   1.972   1.758   1.996   2.353   2.423   2.406   2.537   1.873   2.294   1.958   2.173   1.976   1.830   1.579   2.172   2.440   2.295   2.447   2.209   2.035   2.270   2.215   2.242   2.051   2.276   2.005   1.643   1.208   1.431   1.601   1.513   1.957   2.032   1.951   1.682   1.692   1.834   1.739   2.026   1.598   2.225   2.524
    42.00    2.153   2.753   2.614   2.962   2.868   3.119   3.123   2.776   2.453   2.213   1.881   2.015   1.717   2.136   2.074   1.835   2.172   1.977   1.870   2.093   1.953   1.849   2.204   2.173   2.154   2.004   2.370   1.916   2.071   2.691   2.367   1.846   2.135   2.168   2.392   2.299   2.067   2.119   1.956   1.972   1.467   1.481   1.575   1.326   1.576   1.796   2.004   2.025   1.991   2.075   1.587   1.884   2.177   2.512   2.289   2.252
    38.00    2.221   2.254   2.441   2.783   3.253   3.098   3.011   2.584   2.732   2.245   1.655   1.863   1.966   1.916   1.823   1.962   2.155   1.931   1.740   2.259   2.242   1.887   2.273   2.608   2.471   2.463   2.170   2.044   2.159   2.622   2.381   2.240   1.902   1.791   2.018   1.548   1.785   1.829   1.619   1.766   1.541   1.391   1.880   1.818   1.851   1.862   1.626   1.601   1.687   1.978   1.749   1.939   2.010   2.271   2.313   2.164
    34.00    2.074   1.785   1.961   2.124   2.514   2.588   2.728   2.669   2.710   2.530   1.786   1.803   1.540   1.788   1.546   1.487   1.838   1.898   1.797   1.861   1.795   2.022   2.116   2.263   2.340   2.044   2.330   2.624   2.906   2.404   1.945   1.915   1.839   1.587   1.554   1.467   1.612   1.667   1.927   1.934   1.835   1.769   2.002   2.040   1.647   1.749   1.795   2.093   1.972   2.248   2.106   1.897   1.766   2.076   2.484   2.521
    30.00    2.069   1.561   1.696   1.884   2.130   2.341   2.616   2.787   2.535   2.281   1.960   1.820   1.399   1.625   1.780   1.711   1.712   1.442   1.634   1.692   1.970   1.936   1.999   2.243   2.390   1.959   2.180   2.604   2.412   2.692   2.241   1.553   1.660   1.422   1.829   1.707   1.672   1.757   2.235   1.921   1.810   1.567   2.018   1.775   1.560   1.536   1.822   1.884   2.233   2.362   2.044   1.722   1.463   1.740   1.992   2.156

   Height   Standard deviation at grid points for the v component:
   250.00    2.053   2.053   2.053   2.053   2.053   2.053   2.053   2.053   2.053   2.053   2.053   2.053   2.053   2.053   2.053   2.053   2.053   2.053   2.053   2.053   2.053   2.053   2.053   2.053   2.053   2.053   2.053   2.053   2.053   2.053   2.053   2.053   2.053   2.053   2.053   2.053   2.053   2.053   2.053   2.053   2.053   2.053   2.053   2.053   2.053   2.053   2.053   2.053   2.053   2.053   2.053   2.053   2.053   2.053   2.053   2.053
   246.00    2.053   2.053   2.053   2.053   2.053   2.053   2.053   2.053   2.053   2.053   2.053   2.053   2.053   2.053   2.053   2.053   2.053   2.053   2.053   2.053   2.053   2.053   2.053   2.053   2.053   2.053   2.053   2.053   2.053   2.053   2.053   2.053   2.053   2.053   2.053   2.053   2.053   2.053   2.053   2.053   2.053   2.053   2.053   2.053   2.053   2.053   2.053   2.053   2.053   2.053   2.053   2.053   2.053   2.053   2.053   2.053
   242.00    2.053   2.053   2.053   2.053   2.053   2.053   2.053   2.053   2.053   2.053   2.053   2.053   2.053   2.053   2.053   2.053   2.053   2.053   2.053   2.053   2.053   2.053   2.053   2.053   2.053   2.053   2.053   2.053   2.053   2.053   2.053   2.053   2.053   2.053   2.053   2.053   2.053   2.053   2.053   2.053   2.053   2.053   2.053   2.053   2.053   2.053   2.053   2.053   2.053   2.053   2.053   2.053   2.053   2.053   2.053   2.053
   238.00    2.053   2.053   2.053   2.053   2.053   2.053   2.053   2.053   2.053   2.053   2.053   2.053   2.053   2.053   2.053   2.053   2.053   2.053   2.053   2.053   2.053   2.053   2.053   2.053   2.053   2.053   2.053   2.053   2.053   2.053   2.053   2.053   2.053   2.053   2.053   2.053   2.053   2.053   2.053   2.053   2.053   2.053   2.053   2.053   2.053   2.053   2.053   2.053   2.053   2.053   2.053   2.053   2.053   2.053   2.053   2.053
   234.00    2.053   2.053   2.053   2.053   2.053   2.053   2.053   2.053   2.053   2.053   2.053   2.053   2.053   2.053   2.053   2.053   2.053   2.053   2.053   2.053   2.053   2.053   2.053   2.053   2.053   2.053   2.053   2.053   2.053   2.053   2.053   2.053   2.053   2.053   2.053   2.053   2.053   2.053   2.053   2.053   2.053   2.053   2.053   2.053   2.053   2.053   2.053   2.053   2.053   2.053   2.053   2.053   2.053   2.053   2.053   2.053
   230.00    2.053   2.053   2.053   2.053   2.053   2.053   2.053   2.053   2.053   2.053   2.053   2.053   2.053   2.053   2.053   2.053   2.053   2.053   2.053   2.053   2.053   2.053   2.053   2.053   2.053   2.053   2.053   2.053   2.053   2.053   2.053   2.053   2.053   2.053   2.053   2.053   2.053   2.053   2.053   2.053   2.053   2.053   2.053   2.053   2.053   2.053   2.053   2.053   2.053   2.053   2.053   2.053   2.053   2.053   2.053   2.053
   226.00    2.053   2.053   2.053   2.053   2.053   2.053   2.053   2.053   2.053   2.053   2.053   2.053   2.053   2.053   2.053   2.053   2.053   2.053   2.053   2.053   2.053   2.053   2.053   2.053   2.053   2.053   2.053   2.053   2.053   2.053   2.053   2.053   2.053   2.053   2.053   2.053   2.053   2.053   2.053   2.053   2.053   2.053   2.053   2.053   2.053   2.053   2.053   2.053   2.053   2.053   2.053   2.053   2.053   2.053   2.053   2.053
   222.00    2.053   2.053   2.053   2.053   2.053   2.053   2.053   2.053   2.053   2.053   2.053   2.053   2.053   2.053   2.053   2.053   2.053   2.053   2.053   2.053   2.053   2.053   2.053   2.053   2.053   2.053   2.053   2.053   2.053   2.053   2.053   2.053   2.053   2.053   2.053   2.053   2.053   2.053   2.053   2.053   2.053   2.053   2.053   2.053   2.053   2.053   2.053   2.053   2.053   2.053   2.053   2.053   2.053   2.053   2.053   2.053
   218.00    2.053   2.053   2.053   2.053   2.053   2.053   2.053   2.053   2.053   2.053   2.053   2.053   2.053   2.053   2.053   2.053   2.053   2.053   2.053   2.053   2.053   2.053   2.053   2.053   2.053   2.053   2.053   2.053   2.053   2.053   2.053   2.053   2.053   2.053   2.053   2.053   2.053   2.053   2.053   2.053   2.053   2.053   2.053   2.053   2.053   2.053   2.053   2.053   2.053   2.053   2.053   2.053   2.053   2.053   2.053   2.053
   214.00    2.053   2.053   2.053   2.053   2.053   2.053   2.053   2.053   2.053   2.053   2.053   2.053   2.053   2.053   2.053   2.053   2.053   2.053   2.053   2.053   2.053   2.053   2.053   2.053   2.053   2.053   2.053   2.053   2.053   2.053   2.053   2.053   2.053   2.053   2.053   2.053   2.053   2.053   2.053   2.053   2.053   2.053   2.053   2.053   2.053   2.053   2.053   2.053   2.053   2.053   2.053   2.053   2.053   2.053   2.053   2.053
   210.00    2.053   2.053   2.053   2.053   2.053   2.053   2.053   2.053   2.053   2.053   2.053   2.053   2.053   2.053   2.053   2.053   2.053   2.053   2.053   2.053   2.053   2.053   2.053   2.053   2.053   2.053   2.053   2.053   2.053   2.053   2.053   2.053   2.053   2.053   2.053   2.053   2.053   2.053   2.053   2.053   2.053   2.053   2.053   2.053   2.053   2.053   2.053   2.053   2.053   2.053   2.053   2.053   2.053   2.053   2.053   2.053
   206.00    2.053   2.053   2.053   2.053   2.053   2.053   2.053   2.053   2.053   2.053   2.053   2.053   2.053   2.053   2.053   2.053   2.053   2.053   2.053   2.053   2.053   2.053   2.053   2.053   2.053   2.053   2.053   2.053   2.053   2.053   2.053   2.053   2.053   2.053   2.053   2.053   2.053   2.053   2.053   2.053   2.053   2.053   2.053   2.053   2.053   2.053   2.053   2.053   2.053   2.053   2.053   2.053   2.053   2.053   2.053   2.053
   202.00    2.053   2.053   2.053   2.053   2.053   2.053   2.053   2.053   2.053   2.053   2.053   2.053   2.053   2.053   2.053   2.053   2.053   2.053   2.053   2.053   2.053   2.053   2.053   2.053   2.053   2.053   2.053   2.053   2.053   2.053   2.053   2.053   2.053   2.053   2.053   2.053   2.053   2.053   2.053   2.053   2.053   2.053   2.053   2.053   2.053   2.053   2.053   2.053   2.053   2.053   2.053   2.053   2.053   2.053   2.053   2.053
   198.00    2.053   2.053   2.053   2.053   2.053   2.053   2.053   2.053   2.053   2.053   2.053   2.053   2.053   2.053   2.053   2.053   2.053   2.053   2.053   2.053   2.053   2.053   2.053   2.053   2.053   2.053   2.053   2.053   2.053   2.053   2.053   2.053   2.053   2.053   2.053   2.053   2.053   2.053   2.053   2.053   2.053   2.053   2.053   2.053   2.053   2.053   2.053   2.053   2.053   2.053   2.053   2.053   2.053   2.053   2.053   2.053
   194.00    2.053   2.053   2.053   2.053   2.053   2.053   2.053   2.053   2.053   2.053   2.053   2.053   2.053   2.053   2.053   2.053   2.053   2.053   2.053   2.053   2.053   2.053   2.053   2.053   2.053   2.053   2.053   2.053   2.053   2.053   2.053   2.053   2.053   2.053   2.053   2.053   2.053   2.053   2.053   2.053   2.053   2.053   2.053   2.053   2.053   2.053   2.053   2.053   2.053   2.053   2.053   2.053   2.053   2.053   2.053   2.053
   190.00    2.053   2.053   2.053   2.053   2.053   2.053   2.053   2.053   2.053   2.053   2.053   2.053   2.053   2.053   2.053   2.053   2.053   2.053   2.053   2.053   2.053   2.053   2.053   2.053   2.053   2.053   2.053   2.053   2.053   2.053   2.053   2.053   2.053   2.053   2.053   2.053   2.053   2.053   2.053   2.053   2.053   2.053   2.053   2.053   2.053   2.053   2.053   2.053   2.053   2.053   2.053   2.053   2.053   2.053   2.053   2.053
   186.00    2.053   2.053   2.053   2.053   2.053   2.053   2.053   2.053   2.053   2.053   2.053   2.053   2.053   2.053   2.053   2.053   2.053   2.053   2.053   2.053   2.053   2.053   2.053   2.053   2.053   2.053   2.053   2.053   2.053   2.053   2.053   2.053   2.053   2.053   2.053   2.053   2.053   2.053   2.053   2.053   2.053   2.053   2.053   2.053   2.053   2.053   2.053   2.053   2.053   2.053   2.053   2.053   2.053   2.053   2.053   2.053
   182.00    2.053   2.053   2.053   2.053   2.053   2.053   2.053   2.053   2.053   2.053   2.053   2.053   2.053   2.053   2.053   2.053   2.053   2.053   2.053   2.053   2.053   2.053   2.053   2.053   2.053   2.053   2.053   2.053   2.053   2.053   2.053   2.053   2.053   2.053   2.053   2.053   2.053   2.053   2.053   2.053   2.053   2.053   2.053   2.053   2.053   2.053   2.053   2.053   2.053   2.053   2.053   2.053   2.053   2.053   2.053   2.053
   178.00    2.053   2.053   2.053   2.053   2.053   2.053   2.053   2.053   2.053   2.053   2.053   2.053   2.053   2.053   2.053   2.053   2.053   2.053   2.053   2.053   2.053   2.053   2.053   2.053   2.053   2.053   2.053   2.053   2.053   2.053   2.053   2.053   2.053   2.053   2.053   2.053   2.053   2.053   2.053   2.053   2.053   2.053   2.053   2.053   2.053   2.053   2.053   2.053   2.053   2.053   2.053   2.053   2.053   2.053   2.053   2.053
   174.00    2.053   2.053   2.053   2.053   2.053   2.053   2.053   2.053   2.053   2.053   2.053   2.053   2.053   2.053   2.053   2.053   2.053   2.053   2.053   2.053   2.053   2.053   2.053   2.053   2.053   2.053   2.053   2.053   2.053   2.053   2.053   2.053   2.053   2.053   2.053   2.053   2.053   2.053   2.053   2.053   2.053   2.053   2.053   2.053   2.053   2.053   2.053   2.053   2.053   2.053   2.053   2.053   2.053   2.053   2.053   2.053
   170.00    2.053   2.053   2.053   2.053   2.053   2.053   2.053   2.053   2.053   2.053   2.053   2.053   2.053   2.053   2.053   2.053   2.053   2.053   2.053   2.053   2.053   2.053   2.053   2.053   2.053   2.053   2.053   2.053   2.053   2.053   2.053   2.053   2.053   2.053   2.053   2.053   2.053   2.053   2.053   2.053   2.053   2.053   2.053   2.053   2.053   2.053   2.053   2.053   2.053   2.053   2.053   2.053   2.053   2.053   2.053   2.053
   166.00    2.053   2.053   2.053   2.053   2.053   2.053   2.053   2.053   2.053   2.053   2.053   2.053   2.053   2.053   2.053   2.053   2.053   2.053   2.053   2.053   2.053   2.053   2.053   2.053   2.053   2.053   2.053   2.053   2.053   2.053   2.053   2.053   2.053   2.053   2.053   2.053   2.053   2.053   2.053   2.053   2.053   2.053   2.053   2.053   2.053   2.053   2.053   2.053   2.053   2.053   2.053   2.053   2.053   2.053   2.053   2.053
   162.00    2.053   2.053   2.053   2.053   2.053   2.053   2.053   2.053   2.053   2.053   2.053   2.053   2.053   2.053   2.053   2.053   2.053   2.053   2.053   2.053   2.053   2.053   2.053   2.053   2.053   2.053   2.053   2.053   2.053   2.053   2.053   2.053   2.053   2.053   2.053   2.053   2.053   2.053   2.053   2.053   2.053   2.053   2.053   2.053   2.053   2.053   2.053   2.053   2.053   2.053   2.053   2.053   2.053   2.053   2.053   2.053
   158.00    2.053   2.053   2.053   2.053   2.053   2.053   2.053   2.053   2.053   2.053   2.053   2.053   2.053   2.053   2.053   2.053   2.053   2.053   2.053   2.053   2.053   2.053   2.053   2.053   2.053   2.053   2.053   2.053   2.053   2.053   2.053   2.053   2.053   2.053   2.053   2.053   2.053   2.053   2.053   2.053   2.053   2.053   2.053   2.053   2.053   2.053   2.053   2.053   2.053   2.053   2.053   2.053   2.053   2.053   2.053   2.053
   154.00    2.053   2.053   2.053   2.053   2.053   2.053   2.053   2.053   2.053   2.053   2.053   2.053   2.053   2.053   2.053   2.053   2.053   2.053   2.053   2.053   2.053   2.053   2.053   2.053   2.053   2.053   2.053   2.053   2.053   2.053   2.053   2.053   2.053   2.053   2.053   2.053   2.053   2.053   2.053   2.053   2.053   2.053   2.053   2.053   2.053   2.053   2.053   2.053   2.053   2.053   2.053   2.053   2.053   2.053   2.053   2.053
   150.00    2.053   2.053   2.053   2.053   2.053   2.053   2.053   2.053   2.053   2.053   2.053   2.053   2.053   2.053   2.053   2.053   2.053   2.053   2.053   2.053   2.053   2.053   2.053   2.053   2.053   2.053   2.053   2.053   2.053   2.053   2.053   2.053   2.053   2.053   2.053   2.053   2.053   2.053   2.053   2.053   2.053   2.053   2.053   2.053   2.053   2.053   2.053   2.053   2.053   2.053   2.053   2.053   2.053   2.053   2.053   2.053
   146.00    2.053   2.053   2.053   2.053   2.053   2.053   2.053   2.053   2.053   2.053   2.053   2.053   2.053   2.053   2.053   2.053   2.053   2.053   2.053   2.053   2.053   2.053   2.053   2.053   2.053   2.053   2.053   2.053   2.053   2.053   2.053   2.053   2.053   2.053   2.053   2.053   2.053   2.053   2.053   2.053   2.053   2.053   2.053   2.053   2.053   2.053   2.053   2.053   2.053   2.053   2.053   2.053   2.053   2.053   2.053   2.053
   142.00    2.053   2.053   2.053   2.053   2.053   2.053   2.053   2.053   2.053   2.053   2.053   2.053   2.053   2.053   2.053   2.053   2.053   2.053   2.053   2.053   2.053   2.053   2.053   2.053   2.053   2.053   2.053   2.053   2.053   2.053   2.053   2.053   2.053   2.053   2.053   2.053   2.053   2.053   2.053   2.053   2.053   2.053   2.053   2.053   2.053   2.053   2.053   2.053   2.053   2.053   2.053   2.053   2.053   2.053   2.053   2.053
   138.00    2.053   2.053   2.053   2.053   2.053   2.053   2.053   2.053   2.053   2.053   2.053   2.053   2.053   2.053   2.053   2.053   2.053   2.053   2.053   2.053   2.053   2.053   2.053   2.053   2.053   2.053   2.053   2.053   2.053   2.053   2.053   2.053   2.053   2.053   2.053   2.053   2.053   2.053   2.053   2.053   2.053   2.053   2.053   2.053   2.053   2.053   2.053   2.053   2.053   2.053   2.053   2.053   2.053   2.053   2.053   2.053
   134.00    2.053   2.053   2.053   2.053   2.053   2.053   2.053   2.053   2.053   2.053   2.053   2.053   2.053   2.053   2.053   2.053   2.053   2.053   2.053   2.053   2.053   2.053   2.053   2.053   2.053   2.053   2.053   2.053   2.053   2.053   2.053   2.053   2.053   2.053   2.053   2.053   2.053   2.053   2.053   2.053   2.053   2.053   2.053   2.053   2.053   2.053   2.053   2.053   2.053   2.053   2.053   2.053   2.053   2.053   2.053   2.053
   130.00    2.053   2.053   2.053   2.053   2.053   2.053   2.053   2.053   2.053   2.053   2.053   2.053   2.053   2.053   2.053   2.053   2.053   2.053   2.053   2.053   2.053   2.053   2.053   2.053   2.053   2.053   2.053   2.053   2.053   2.053   2.053   2.053   2.053   2.053   2.053   2.053   2.053   2.053   2.053   2.053   2.053   2.053   2.053   2.053   2.053   2.053   2.053   2.053   2.053   2.053   2.053   2.053   2.053   2.053   2.053   2.053
   126.00    2.053   2.053   2.053   2.053   2.053   2.053   2.053   2.053   2.053   2.053   2.053   2.053   2.053   2.053   2.053   2.053   2.053   2.053   2.053   2.053   2.053   2.053   2.053   2.053   2.053   2.053   2.053   2.053   2.053   2.053   2.053   2.053   2.053   2.053   2.053   2.053   2.053   2.053   2.053   2.053   2.053   2.053   2.053   2.053   2.053   2.053   2.053   2.053   2.053   2.053   2.053   2.053   2.053   2.053   2.053   2.053
   122.00    2.053   2.053   2.053   2.053   2.053   2.053   2.053   2.053   2.053   2.053   2.053   2.053   2.053   2.053   2.053   2.053   2.053   2.053   2.053   2.053   2.053   2.053   2.053   2.053   2.053   2.053   2.053   2.053   2.053   2.053   2.053   2.053   2.053   2.053   2.053   2.053   2.053   2.053   2.053   2.053   2.053   2.053   2.053   2.053   2.053   2.053   2.053   2.053   2.053   2.053   2.053   2.053   2.053   2.053   2.053   2.053
   118.00    2.053   2.053   2.053   2.053   2.053   2.053   2.053   2.053   2.053   2.053   2.053   2.053   2.053   2.053   2.053   2.053   2.053   2.053   2.053   2.053   2.053   2.053   2.053   2.053   2.053   2.053   2.053   2.053   2.053   2.053   2.053   2.053   2.053   2.053   2.053   2.053   2.053   2.053   2.053   2.053   2.053   2.053   2.053   2.053   2.053   2.053   2.053   2.053   2.053   2.053   2.053   2.053   2.053   2.053   2.053   2.053
   114.00    2.053   2.053   2.053   2.053   2.053   2.053   2.053   2.053   2.053   2.053   2.053   2.053   2.053   2.053   2.053   2.053   2.053   2.053   2.053   2.053   2.053   2.053   2.053   2.053   2.053   2.053   2.053   2.053   2.053   2.053   2.053   2.053   2.053   2.053   2.053   2.053   2.053   2.053   2.053   2.053   2.053   2.053   2.053   2.053   2.053   2.053   2.053   2.053   2.053   2.053   2.053   2.053   2.053   2.053   2.053   2.053
   110.00    2.053   2.053   2.053   2.053   2.053   2.053   2.053   2.053   2.053   2.053   2.053   2.053   2.053   2.053   2.053   2.053   2.053   2.053   2.053   2.053   2.053   2.053   2.053   2.053   2.053   2.053   2.053   2.053   2.053   2.053   2.053   2.053   2.053   2.053   2.053   2.053   2.053   2.053   2.053   2.053   2.053   2.053   2.053   2.053   2.053   2.053   2.053   2.053   2.053   2.053   2.053   2.053   2.053   2.053   2.053   2.053
   106.00    2.053   2.053   2.053   2.053   2.053   2.053   2.053   2.053   2.053   2.053   2.053   2.053   2.053   2.053   2.053   2.053   2.053   2.053   2.053   2.053   2.053   2.053   2.053   2.053   2.053   2.053   2.053   2.053   2.053   2.053   2.053   2.053   2.053   2.053   2.053   2.053   2.053   2.053   2.053   2.053   2.053   2.053   2.053   2.053   2.053   2.053   2.053   2.053   2.053   2.053   2.053   2.053   2.053   2.053   2.053   2.053
   102.00    2.053   2.053   2.053   2.053   2.053   2.053   2.053   2.053   2.053   2.053   2.053   2.053   2.053   2.053   2.053   2.053   2.053   2.053   2.053   2.053   2.053   2.053   2.053   2.053   2.053   2.053   2.053   2.053   2.053   2.053   2.053   2.053   2.053   2.053   2.053   2.053   2.053   2.053   2.053   2.053   2.053   2.053   2.053   2.053   2.053   2.053   2.053   2.053   2.053   2.053   2.053   2.053   2.053   2.053   2.053   2.053
    98.00    2.053   2.053   2.053   2.053   2.053   2.053   2.053   2.053   2.053   2.053   2.053   2.053   2.053   2.053   2.053   2.053   2.053   2.053   2.053   2.053   2.053   2.053   2.053   2.053   2.053   2.053   2.053   2.053   2.053   2.053   2.053   2.053   2.053   2.053   2.053   2.053   2.053   2.053   2.053   2.053   2.053   2.053   2.053   2.053   2.053   2.053   2.053   2.053   2.053   2.053   2.053   2.053   2.053   2.053   2.053   2.053
    94.00    2.053   2.053   2.053   2.053   2.053   2.053   2.053   2.053   2.053   2.053   2.053   2.053   2.053   2.053   2.053   2.053   2.053   2.053   2.053   2.053   2.053   2.053   2.053   2.053   2.053   2.053   2.053   2.053   2.053   2.053   2.053   2.053   2.053   2.053   2.053   2.053   2.053   2.053   2.053   2.053   2.053   2.053   2.053   2.053   2.053   2.053   2.053   2.053   2.053   2.053   2.053   2.053   2.053   2.053   2.053   2.053
    90.00    2.053   2.053   2.053   2.053   2.053   2.053   2.053   2.053   2.053   2.053   2.053   2.053   2.053   2.053   2.053   2.053   2.053   2.053   2.053   2.053   2.053   2.053   2.053   2.053   2.053   2.053   2.053   2.053   2.053   2.053   2.053   2.053   2.053   2.053   2.053   2.053   2.053   2.053   2.053   2.053   2.053   2.053   2.053   2.053   2.053   2.053   2.053   2.053   2.053   2.053   2.053   2.053   2.053   2.053   2.053   2.053
    86.00    2.053   2.053   2.053   2.053   2.053   2.053   2.053   2.053   2.053   2.053   2.053   2.053   2.053   2.053   2.053   2.053   2.053   2.053   2.053   2.053   2.053   2.053   2.053   2.053   2.053   2.053   2.053   2.053   2.053   2.053   2.053   2.053   2.053   2.053   2.053   2.053   2.053   2.053   2.053   2.053   2.053   2.053   2.053   2.053   2.053   2.053   2.053   2.053   2.053   2.053   2.053   2.053   2.053   2.053   2.053   2.053
    82.00    2.053   2.053   2.053   2.053   2.053   2.053   2.053   2.053   2.053   2.053   2.053   2.053   2.053   2.053   2.053   2.053   2.053   2.053   2.053   2.053   2.053   2.053   2.053   2.053   2.053   2.053   2.053   2.053   2.053   2.053   2.053   2.053   2.053   2.053   2.053   2.053   2.053   2.053   2.053   2.053   2.053   2.053   2.053   2.053   2.053   2.053   2.053   2.053   2.053   2.053   2.053   2.053   2.053   2.053   2.053   2.053
    78.00    2.053   2.053   2.053   2.053   2.053   2.053   2.053   2.053   2.053   2.053   2.053   2.053   2.053   2.053   2.053   2.053   2.053   2.053   2.053   2.053   2.053   2.053   2.053   2.053   2.053   2.053   2.053   2.053   2.053   2.053   2.053   2.053   2.053   2.053   2.053   2.053   2.053   2.053   2.053   2.053   2.053   2.053   2.053   2.053   2.053   2.053   2.053   2.053   2.053   2.053   2.053   2.053   2.053   2.053   2.053   2.053
    74.00    2.053   2.053   2.053   2.053   2.053   2.053   2.053   2.053   2.053   2.053   2.053   2.053   2.053   2.053   2.053   2.053   2.053   2.053   2.053   2.053   2.053   2.053   2.053   2.053   2.053   2.053   2.053   2.053   2.053   2.053   2.053   2.053   2.053   2.053   2.053   2.053   2.053   2.053   2.053   2.053   2.053   2.053   2.053   2.053   2.053   2.053   2.053   2.053   2.053   2.053   2.053   2.053   2.053   2.053   2.053   2.053
    70.00    2.053   2.053   2.053   2.053   2.053   2.053   2.053   2.053   2.053   2.053   2.053   2.053   2.053   2.053   2.053   2.053   2.053   2.053   2.053   2.053   2.053   2.053   2.053   2.053   2.053   2.053   2.053   2.053   2.053   2.053   2.053   2.053   2.053   2.053   2.053   2.053   2.053   2.053   2.053   2.053   2.053   2.053   2.053   2.053   2.053   2.053   2.053   2.053   2.053   2.053   2.053   2.053   2.053   2.053   2.053   2.053
    66.00    2.053   2.053   2.053   2.053   2.053   2.053   2.053   2.053   2.053   2.053   2.053   2.053   2.053   2.053   2.053   2.053   2.053   2.053   2.053   2.053   2.053   2.053   2.053   2.053   2.053   2.053   2.053   2.053   2.053   2.053   2.053   2.053   2.053   2.053   2.053   2.053   2.053   2.053   2.053   2.053   2.053   2.053   2.053   2.053   2.053   2.053   2.053   2.053   2.053   2.053   2.053   2.053   2.053   2.053   2.053   2.053
    62.00    2.053   2.053   2.053   2.053   2.053   2.053   2.053   2.053   2.053   2.053   2.053   2.053   2.053   2.053   2.053   2.053   2.053   2.053   2.053   2.053   2.053   2.053   2.053   2.053   2.053   2.053   2.053   2.053   2.053   2.053   2.053   2.053   2.053   2.053   2.053   2.053   2.053   2.053   2.053   2.053   2.053   2.053   2.053   2.053   2.053   2.053   2.053   2.053   2.053   2.053   2.053   2.053   2.053   2.053   2.053   2.053
    58.00    2.053   2.053   2.053   2.053   2.053   2.053   2.053   2.053   2.053   2.053   2.053   2.053   2.053   2.053   2.053   2.053   2.053   2.053   2.053   2.053   2.053   2.053   2.053   2.053   2.053   2.053   2.053   2.053   2.053   2.053   2.053   2.053   2.053   2.053   2.053   2.053   2.053   2.053   2.053   2.053   2.053   2.053   2.053   2.053   2.053   2.053   2.053   2.053   2.053   2.053   2.053   2.053   2.053   2.053   2.053   2.053
    54.00    2.053   2.053   2.053   2.053   2.053   2.053   2.053   2.053   2.053   2.053   2.053   2.053   2.053   2.053   2.053   2.053   2.053   2.053   2.053   2.053   2.053   2.053   2.053   2.053   2.053   2.053   2.053   2.053   2.053   2.053   2.053   2.053   2.053   2.053   2.053   2.053   2.053   2.053   2.053   2.053   2.053   2.053   2.053   2.053   2.053   2.053   2.053   2.053   2.053   2.053   2.053   2.053   2.053   2.053   2.053   2.053
    50.00    2.053   2.053   2.053   2.053   2.053   2.053   2.053   2.053   2.053   2.053   2.053   2.053   2.053   2.053   2.053   2.053   2.053   2.053   2.053   2.053   2.053   2.053   2.053   2.053   2.053   2.053   2.053   2.053   2.053   2.053   2.053   2.053   2.053   2.053   2.053   2.053   2.053   2.053   2.053   2.053   2.053   2.053   2.053   2.053   2.053   2.053   2.053   2.053   2.053   2.053   2.053   2.053   2.053   2.053   2.053   2.053
    46.00    2.053   2.053   2.053   2.053   2.053   2.053   2.053   2.053   2.053   2.053   2.053   2.053   2.053   2.053   2.053   2.053   2.053   2.053   2.053   2.053   2.053   2.053   2.053   2.053   2.053   2.053   2.053   2.053   2.053   2.053   2.053   2.053   2.053   2.053   2.053   2.053   2.053   2.053   2.053   2.053   2.053   2.053   2.053   2.053   2.053   2.053   2.053   2.053   2.053   2.053   2.053   2.053   2.053   2.053   2.053   2.053
    42.00    2.053   2.053   2.053   2.053   2.053   2.053   2.053   2.053   2.053   2.053   2.053   2.053   2.053   2.053   2.053   2.053   2.053   2.053   2.053   2.053   2.053   2.053   2.053   2.053   2.053   2.053   2.053   2.053   2.053   2.053   2.053   2.053   2.053   2.053   2.053   2.053   2.053   2.053   2.053   2.053   2.053   2.053   2.053   2.053   2.053   2.053   2.053   2.053   2.053   2.053   2.053   2.053   2.053   2.053   2.053   2.053
    38.00    2.053   2.053   2.053   2.053   2.053   2.053   2.053   2.053   2.053   2.053   2.053   2.053   2.053   2.053   2.053   2.053   2.053   2.053   2.053   2.053   2.053   2.053   2.053   2.053   2.053   2.053   2.053   2.053   2.053   2.053   2.053   2.053   2.053   2.053   2.053   2.053   2.053   2.053   2.053   2.053   2.053   2.053   2.053   2.053   2.053   2.053   2.053   2.053   2.053   2.053   2.053   2.053   2.053   2.053   2.053   2.053
    34.00    2.053   2.053   2.053   2.053   2.053   2.053   2.053   2.053   2.053   2.053   2.053   2.053   2.053   2.053   2.053   2.053   2.053   2.053   2.053   2.053   2.053   2.053   2.053   2.053   2.053   2.053   2.053   2.053   2.053   2.053   2.053   2.053   2.053   2.053   2.053   2.053   2.053   2.053   2.053   2.053   2.053   2.053   2.053   2.053   2.053   2.053   2.053   2.053   2.053   2.053   2.053   2.053   2.053   2.053   2.053   2.053
    30.00    2.053   2.053   2.053   2.053   2.053   2.053   2.053   2.053   2.053   2.053   2.053   2.053   2.053   2.053   2.053   2.053   2.053   2.053   2.053   2.053   2.053   2.053   2.053   2.053   2.053   2.053   2.053   2.053   2.053   2.053   2.053   2.053   2.053   2.053   2.053   2.053   2.053   2.053   2.053   2.053   2.053   2.053   2.053   2.053   2.053   2.053   2.053   2.053   2.053   2.053   2.053   2.053   2.053   2.053   2.053   2.053

   Height   Standard deviation at grid points for the w component:
   250.00    1.454   1.454   1.454   1.454   1.454   1.454   1.454   1.454   1.454   1.454   1.454   1.454   1.454   1.454   1.454   1.454   1.454   1.454   1.454   1.454   1.454   1.454   1.454   1.454   1.454   1.454   1.454   1.454   1.454   1.454   1.454   1.454   1.454   1.454   1.454   1.454   1.454   1.454   1.454   1.454   1.454   1.454   1.454   1.454   1.454   1.454   1.454   1.454   1.454   1.454   1.454   1.454   1.454   1.454   1.454   1.454
   246.00    1.454   1.454   1.454   1.454   1.454   1.454   1.454   1.454   1.454   1.454   1.454   1.454   1.454   1.454   1.454   1.454   1.454   1.454   1.454   1.454   1.454   1.454   1.454   1.454   1.454   1.454   1.454   1.454   1.454   1.454   1.454   1.454   1.454   1.454   1.454   1.454   1.454   1.454   1.454   1.454   1.454   1.454   1.454   1.454   1.454   1.454   1.454   1.454   1.454   1.454   1.454   1.454   1.454   1.454   1.454   1.454
   242.00    1.454   1.454   1.454   1.454   1.454   1.454   1.454   1.454   1.454   1.454   1.454   1.454   1.454   1.454   1.454   1.454   1.454   1.454   1.454   1.454   1.454   1.454   1.454   1.454   1.454   1.454   1.454   1.454   1.454   1.454   1.454   1.454   1.454   1.454   1.454   1.454   1.454   1.454   1.454   1.454   1.454   1.454   1.454   1.454   1.454   1.454   1.454   1.454   1.454   1.454   1.454   1.454   1.454   1.454   1.454   1.454
   238.00    1.454   1.454   1.454   1.454   1.454   1.454   1.454   1.454   1.454   1.454   1.454   1.454   1.454   1.454   1.454   1.454   1.454   1.454   1.454   1.454   1.454   1.454   1.454   1.454   1.454   1.454   1.454   1.454   1.454   1.454   1.454   1.454   1.454   1.454   1.454   1.454   1.454   1.454   1.454   1.454   1.454   1.454   1.454   1.454   1.454   1.454   1.454   1.454   1.454   1.454   1.454   1.454   1.454   1.454   1.454   1.454
   234.00    1.454   1.454   1.454   1.454   1.454   1.454   1.454   1.454   1.454   1.454   1.454   1.454   1.454   1.454   1.454   1.454   1.454   1.454   1.454   1.454   1.454   1.454   1.454   1.454   1.454   1.454   1.454   1.454   1.454   1.454   1.454   1.454   1.454   1.454   1.454   1.454   1.454   1.454   1.454   1.454   1.454   1.454   1.454   1.454   1.454   1.454   1.454   1.454   1.454   1.454   1.454   1.454   1.454   1.454   1.454   1.454
   230.00    1.454   1.454   1.454   1.454   1.454   1.454   1.454   1.454   1.454   1.454   1.454   1.454   1.454   1.454   1.454   1.454   1.454   1.454   1.454   1.454   1.454   1.454   1.454   1.454   1.454   1.454   1.454   1.454   1.454   1.454   1.454   1.454   1.454   1.454   1.454   1.454   1.454   1.454   1.454   1.454   1.454   1.454   1.454   1.454   1.454   1.454   1.454   1.454   1.454   1.454   1.454   1.454   1.454   1.454   1.454   1.454
   226.00    1.454   1.454   1.454   1.454   1.454   1.454   1.454   1.454   1.454   1.454   1.454   1.454   1.454   1.454   1.454   1.454   1.454   1.454   1.454   1.454   1.454   1.454   1.454   1.454   1.454   1.454   1.454   1.454   1.454   1.454   1.454   1.454   1.454   1.454   1.454   1.454   1.454   1.454   1.454   1.454   1.454   1.454   1.454   1.454   1.454   1.454   1.454   1.454   1.454   1.454   1.454   1.454   1.454   1.454   1.454   1.454
   222.00    1.454   1.454   1.454   1.454   1.454   1.454   1.454   1.454   1.454   1.454   1.454   1.454   1.454   1.454   1.454   1.454   1.454   1.454   1.454   1.454   1.454   1.454   1.454   1.454   1.454   1.454   1.454   1.454   1.454   1.454   1.454   1.454   1.454   1.454   1.454   1.454   1.454   1.454   1.454   1.454   1.454   1.454   1.454   1.454   1.454   1.454   1.454   1.454   1.454   1.454   1.454   1.454   1.454   1.454   1.454   1.454
   218.00    1.454   1.454   1.454   1.454   1.454   1.454   1.454   1.454   1.454   1.454   1.454   1.454   1.454   1.454   1.454   1.454   1.454   1.454   1.454   1.454   1.454   1.454   1.454   1.454   1.454   1.454   1.454   1.454   1.454   1.454   1.454   1.454   1.454   1.454   1.454   1.454   1.454   1.454   1.454   1.454   1.454   1.454   1.454   1.454   1.454   1.454   1.454   1.454   1.454   1.454   1.454   1.454   1.454   1.454   1.454   1.454
   214.00    1.454   1.454   1.454   1.454   1.454   1.454   1.454   1.454   1.454   1.454   1.454   1.454   1.454   1.454   1.454   1.454   1.454   1.454   1.454   1.454   1.454   1.454   1.454   1.454   1.454   1.454   1.454   1.454   1.454   1.454   1.454   1.454   1.454   1.454   1.454   1.454   1.454   1.454   1.454   1.454   1.454   1.454   1.454   1.454   1.454   1.454   1.454   1.454   1.454   1.454   1.454   1.454   1.454   1.454   1.454   1.454
   210.00    1.454   1.454   1.454   1.454   1.454   1.454   1.454   1.454   1.454   1.454   1.454   1.454   1.454   1.454   1.454   1.454   1.454   1.454   1.454   1.454   1.454   1.454   1.454   1.454   1.454   1.454   1.454   1.454   1.454   1.454   1.454   1.454   1.454   1.454   1.454   1.454   1.454   1.454   1.454   1.454   1.454   1.454   1.454   1.454   1.454   1.454   1.454   1.454   1.454   1.454   1.454   1.454   1.454   1.454   1.454   1.454
   206.00    1.454   1.454   1.454   1.454   1.454   1.454   1.454   1.454   1.454   1.454   1.454   1.454   1.454   1.454   1.454   1.454   1.454   1.454   1.454   1.454   1.454   1.454   1.454   1.454   1.454   1.454   1.454   1.454   1.454   1.454   1.454   1.454   1.454   1.454   1.454   1.454   1.454   1.454   1.454   1.454   1.454   1.454   1.454   1.454   1.454   1.454   1.454   1.454   1.454   1.454   1.454   1.454   1.454   1.454   1.454   1.454
   202.00    1.454   1.454   1.454   1.454   1.454   1.454   1.454   1.454   1.454   1.454   1.454   1.454   1.454   1.454   1.454   1.454   1.454   1.454   1.454   1.454   1.454   1.454   1.454   1.454   1.454   1.454   1.454   1.454   1.454   1.454   1.454   1.454   1.454   1.454   1.454   1.454   1.454   1.454   1.454   1.454   1.454   1.454   1.454   1.454   1.454   1.454   1.454   1.454   1.454   1.454   1.454   1.454   1.454   1.454   1.454   1.454
   198.00    1.454   1.454   1.454   1.454   1.454   1.454   1.454   1.454   1.454   1.454   1.454   1.454   1.454   1.454   1.454   1.454   1.454   1.454   1.454   1.454   1.454   1.454   1.454   1.454   1.454   1.454   1.454   1.454   1.454   1.454   1.454   1.454   1.454   1.454   1.454   1.454   1.454   1.454   1.454   1.454   1.454   1.454   1.454   1.454   1.454   1.454   1.454   1.454   1.454   1.454   1.454   1.454   1.454   1.454   1.454   1.454
   194.00    1.454   1.454   1.454   1.454   1.454   1.454   1.454   1.454   1.454   1.454   1.454   1.454   1.454   1.454   1.454   1.454   1.454   1.454   1.454   1.454   1.454   1.454   1.454   1.454   1.454   1.454   1.454   1.454   1.454   1.454   1.454   1.454   1.454   1.454   1.454   1.454   1.454   1.454   1.454   1.454   1.454   1.454   1.454   1.454   1.454   1.454   1.454   1.454   1.454   1.454   1.454   1.454   1.454   1.454   1.454   1.454
   190.00    1.454   1.454   1.454   1.454   1.454   1.454   1.454   1.454   1.454   1.454   1.454   1.454   1.454   1.454   1.454   1.454   1.454   1.454   1.454   1.454   1.454   1.454   1.454   1.454   1.454   1.454   1.454   1.454   1.454   1.454   1.454   1.454   1.454   1.454   1.454   1.454   1.454   1.454   1.454   1.454   1.454   1.454   1.454   1.454   1.454   1.454   1.454   1.454   1.454   1.454   1.454   1.454   1.454   1.454   1.454   1.454
   186.00    1.454   1.454   1.454   1.454   1.454   1.454   1.454   1.454   1.454   1.454   1.454   1.454   1.454   1.454   1.454   1.454   1.454   1.454   1.454   1.454   1.454   1.454   1.454   1.454   1.454   1.454   1.454   1.454   1.454   1.454   1.454   1.454   1.454   1.454   1.454   1.454   1.454   1.454   1.454   1.454   1.454   1.454   1.454   1.454   1.454   1.454   1.454   1.454   1.454   1.454   1.454   1.454   1.454   1.454   1.454   1.454
   182.00    1.454   1.454   1.454   1.454   1.454   1.454   1.454   1.454   1.454   1.454   1.454   1.454   1.454   1.454   1.454   1.454   1.454   1.454   1.454   1.454   1.454   1.454   1.454   1.454   1.454   1.454   1.454   1.454   1.454   1.454   1.454   1.454   1.454   1.454   1.454   1.454   1.454   1.454   1.454   1.454   1.454   1.454   1.454   1.454   1.454   1.454   1.454   1.454   1.454   1.454   1.454   1.454   1.454   1.454   1.454   1.454
   178.00    1.454   1.454   1.454   1.454   1.454   1.454   1.454   1.454   1.454   1.454   1.454   1.454   1.454   1.454   1.454   1.454   1.454   1.454   1.454   1.454   1.454   1.454   1.454   1.454   1.454   1.454   1.454   1.454   1.454   1.454   1.454   1.454   1.454   1.454   1.454   1.454   1.454   1.454   1.454   1.454   1.454   1.454   1.454   1.454   1.454   1.454   1.454   1.454   1.454   1.454   1.454   1.454   1.454   1.454   1.454   1.454
   174.00    1.454   1.454   1.454   1.454   1.454   1.454   1.454   1.454   1.454   1.454   1.454   1.454   1.454   1.454   1.454   1.454   1.454   1.454   1.454   1.454   1.454   1.454   1.454   1.454   1.454   1.454   1.454   1.454   1.454   1.454   1.454   1.454   1.454   1.454   1.454   1.454   1.454   1.454   1.454   1.454   1.454   1.454   1.454   1.454   1.454   1.454   1.454   1.454   1.454   1.454   1.454   1.454   1.454   1.454   1.454   1.454
   170.00    1.454   1.454   1.454   1.454   1.454   1.454   1.454   1.454   1.454   1.454   1.454   1.454   1.454   1.454   1.454   1.454   1.454   1.454   1.454   1.454   1.454   1.454   1.454   1.454   1.454   1.454   1.454   1.454   1.454   1.454   1.454   1.454   1.454   1.454   1.454   1.454   1.454   1.454   1.454   1.454   1.454   1.454   1.454   1.454   1.454   1.454   1.454   1.454   1.454   1.454   1.454   1.454   1.454   1.454   1.454   1.454
   166.00    1.454   1.454   1.454   1.454   1.454   1.454   1.454   1.454   1.454   1.454   1.454   1.454   1.454   1.454   1.454   1.454   1.454   1.454   1.454   1.454   1.454   1.454   1.454   1.454   1.454   1.454   1.454   1.454   1.454   1.454   1.454   1.454   1.454   1.454   1.454   1.454   1.454   1.454   1.454   1.454   1.454   1.454   1.454   1.454   1.454   1.454   1.454   1.454   1.454   1.454   1.454   1.454   1.454   1.454   1.454   1.454
   162.00    1.454   1.454   1.454   1.454   1.454   1.454   1.454   1.454   1.454   1.454   1.454   1.454   1.454   1.454   1.454   1.454   1.454   1.454   1.454   1.454   1.454   1.454   1.454   1.454   1.454   1.454   1.454   1.454   1.454   1.454   1.454   1.454   1.454   1.454   1.454   1.454   1.454   1.454   1.454   1.454   1.454   1.454   1.454   1.454   1.454   1.454   1.454   1.454   1.454   1.454   1.454   1.454   1.454   1.454   1.454   1.454
   158.00    1.454   1.454   1.454   1.454   1.454   1.454   1.454   1.454   1.454   1.454   1.454   1.454   1.454   1.454   1.454   1.454   1.454   1.454   1.454   1.454   1.454   1.454   1.454   1.454   1.454   1.454   1.454   1.454   1.454   1.454   1.454   1.454   1.454   1.454   1.454   1.454   1.454   1.454   1.454   1.454   1.454   1.454   1.454   1.454   1.454   1.454   1.454   1.454   1.454   1.454   1.454   1.454   1.454   1.454   1.454   1.454
   154.00    1.454   1.454   1.454   1.454   1.454   1.454   1.454   1.454   1.454   1.454   1.454   1.454   1.454   1.454   1.454   1.454   1.454   1.454   1.454   1.454   1.454   1.454   1.454   1.454   1.454   1.454   1.454   1.454   1.454   1.454   1.454   1.454   1.454   1.454   1.454   1.454   1.454   1.454   1.454   1.454   1.454   1.454   1.454   1.454   1.454   1.454   1.454   1.454   1.454   1.454   1.454   1.454   1.454   1.454   1.454   1.454
   150.00    1.454   1.454   1.454   1.454   1.454   1.454   1.454   1.454   1.454   1.454   1.454   1.454   1.454   1.454   1.454   1.454   1.454   1.454   1.454   1.454   1.454   1.454   1.454   1.454   1.454   1.454   1.454   1.454   1.454   1.454   1.454   1.454   1.454   1.454   1.454   1.454   1.454   1.454   1.454   1.454   1.454   1.454   1.454   1.454   1.454   1.454   1.454   1.454   1.454   1.454   1.454   1.454   1.454   1.454   1.454   1.454
   146.00    1.454   1.454   1.454   1.454   1.454   1.454   1.454   1.454   1.454   1.454   1.454   1.454   1.454   1.454   1.454   1.454   1.454   1.454   1.454   1.454   1.454   1.454   1.454   1.454   1.454   1.454   1.454   1.454   1.454   1.454   1.454   1.454   1.454   1.454   1.454   1.454   1.454   1.454   1.454   1.454   1.454   1.454   1.454   1.454   1.454   1.454   1.454   1.454   1.454   1.454   1.454   1.454   1.454   1.454   1.454   1.454
   142.00    1.454   1.454   1.454   1.454   1.454   1.454   1.454   1.454   1.454   1.454   1.454   1.454   1.454   1.454   1.454   1.454   1.454   1.454   1.454   1.454   1.454   1.454   1.454   1.454   1.454   1.454   1.454   1.454   1.454   1.454   1.454   1.454   1.454   1.454   1.454   1.454   1.454   1.454   1.454   1.454   1.454   1.454   1.454   1.454   1.454   1.454   1.454   1.454   1.454   1.454   1.454   1.454   1.454   1.454   1.454   1.454
   138.00    1.454   1.454   1.454   1.454   1.454   1.454   1.454   1.454   1.454   1.454   1.454   1.454   1.454   1.454   1.454   1.454   1.454   1.454   1.454   1.454   1.454   1.454   1.454   1.454   1.454   1.454   1.454   1.454   1.454   1.454   1.454   1.454   1.454   1.454   1.454   1.454   1.454   1.454   1.454   1.454   1.454   1.454   1.454   1.454   1.454   1.454   1.454   1.454   1.454   1.454   1.454   1.454   1.454   1.454   1.454   1.454
   134.00    1.454   1.454   1.454   1.454   1.454   1.454   1.454   1.454   1.454   1.454   1.454   1.454   1.454   1.454   1.454   1.454   1.454   1.454   1.454   1.454   1.454   1.454   1.454   1.454   1.454   1.454   1.454   1.454   1.454   1.454   1.454   1.454   1.454   1.454   1.454   1.454   1.454   1.454   1.454   1.454   1.454   1.454   1.454   1.454   1.454   1.454   1.454   1.454   1.454   1.454   1.454   1.454   1.454   1.454   1.454   1.454
   130.00    1.454   1.454   1.454   1.454   1.454   1.454   1.454   1.454   1.454   1.454   1.454   1.454   1.454   1.454   1.454   1.454   1.454   1.454   1.454   1.454   1.454   1.454   1.454   1.454   1.454   1.454   1.454   1.454   1.454   1.454   1.454   1.454   1.454   1.454   1.454   1.454   1.454   1.454   1.454   1.454   1.454   1.454   1.454   1.454   1.454   1.454   1.454   1.454   1.454   1.454   1.454   1.454   1.454   1.454   1.454   1.454
   126.00    1.454   1.454   1.454   1.454   1.454   1.454   1.454   1.454   1.454   1.454   1.454   1.454   1.454   1.454   1.454   1.454   1.454   1.454   1.454   1.454   1.454   1.454   1.454   1.454   1.454   1.454   1.454   1.454   1.454   1.454   1.454   1.454   1.454   1.454   1.454   1.454   1.454   1.454   1.454   1.454   1.454   1.454   1.454   1.454   1.454   1.454   1.454   1.454   1.454   1.454   1.454   1.454   1.454   1.454   1.454   1.454
   122.00    1.454   1.454   1.454   1.454   1.454   1.454   1.454   1.454   1.454   1.454   1.454   1.454   1.454   1.454   1.454   1.454   1.454   1.454   1.454   1.454   1.454   1.454   1.454   1.454   1.454   1.454   1.454   1.454   1.454   1.454   1.454   1.454   1.454   1.454   1.454   1.454   1.454   1.454   1.454   1.454   1.454   1.454   1.454   1.454   1.454   1.454   1.454   1.454   1.454   1.454   1.454   1.454   1.454   1.454   1.454   1.454
   118.00    1.454   1.454   1.454   1.454   1.454   1.454   1.454   1.454   1.454   1.454   1.454   1.454   1.454   1.454   1.454   1.454   1.454   1.454   1.454   1.454   1.454   1.454   1.454   1.454   1.454   1.454   1.454   1.454   1.454   1.454   1.454   1.454   1.454   1.454   1.454   1.454   1.454   1.454   1.454   1.454   1.454   1.454   1.454   1.454   1.454   1.454   1.454   1.454   1.454   1.454   1.454   1.454   1.454   1.454   1.454   1.454
   114.00    1.454   1.454   1.454   1.454   1.454   1.454   1.454   1.454   1.454   1.454   1.454   1.454   1.454   1.454   1.454   1.454   1.454   1.454   1.454   1.454   1.454   1.454   1.454   1.454   1.454   1.454   1.454   1.454   1.454   1.454   1.454   1.454   1.454   1.454   1.454   1.454   1.454   1.454   1.454   1.454   1.454   1.454   1.454   1.454   1.454   1.454   1.454   1.454   1.454   1.454   1.454   1.454   1.454   1.454   1.454   1.454
   110.00    1.454   1.454   1.454   1.454   1.454   1.454   1.454   1.454   1.454   1.454   1.454   1.454   1.454   1.454   1.454   1.454   1.454   1.454   1.454   1.454   1.454   1.454   1.454   1.454   1.454   1.454   1.454   1.454   1.454   1.454   1.454   1.454   1.454   1.454   1.454   1.454   1.454   1.454   1.454   1.454   1.454   1.454   1.454   1.454   1.454   1.454   1.454   1.454   1.454   1.454   1.454   1.454   1.454   1.454   1.454   1.454
   106.00    1.454   1.454   1.454   1.454   1.454   1.454   1.454   1.454   1.454   1.454   1.454   1.454   1.454   1.454   1.454   1.454   1.454   1.454   1.454   1.454   1.454   1.454   1.454   1.454   1.454   1.454   1.454   1.454   1.454   1.454   1.454   1.454   1.454   1.454   1.454   1.454   1.454   1.454   1.454   1.454   1.454   1.454   1.454   1.454   1.454   1.454   1.454   1.454   1.454   1.454   1.454   1.454   1.454   1.454   1.454   1.454
   102.00    1.454   1.454   1.454   1.454   1.454   1.454   1.454   1.454   1.454   1.454   1.454   1.454   1.454   1.454   1.454   1.454   1.454   1.454   1.454   1.454   1.454   1.454   1.454   1.454   1.454   1.454   1.454   1.454   1.454   1.454   1.454   1.454   1.454   1.454   1.454   1.454   1.454   1.454   1.454   1.454   1.454   1.454   1.454   1.454   1.454   1.454   1.454   1.454   1.454   1.454   1.454   1.454   1.454   1.454   1.454   1.454
    98.00    1.454   1.454   1.454   1.454   1.454   1.454   1.454   1.454   1.454   1.454   1.454   1.454   1.454   1.454   1.454   1.454   1.454   1.454   1.454   1.454   1.454   1.454   1.454   1.454   1.454   1.454   1.454   1.454   1.454   1.454   1.454   1.454   1.454   1.454   1.454   1.454   1.454   1.454   1.454   1.454   1.454   1.454   1.454   1.454   1.454   1.454   1.454   1.454   1.454   1.454   1.454   1.454   1.454   1.454   1.454   1.454
    94.00    1.454   1.454   1.454   1.454   1.454   1.454   1.454   1.454   1.454   1.454   1.454   1.454   1.454   1.454   1.454   1.454   1.454   1.454   1.454   1.454   1.454   1.454   1.454   1.454   1.454   1.454   1.454   1.454   1.454   1.454   1.454   1.454   1.454   1.454   1.454   1.454   1.454   1.454   1.454   1.454   1.454   1.454   1.454   1.454   1.454   1.454   1.454   1.454   1.454   1.454   1.454   1.454   1.454   1.454   1.454   1.454
    90.00    1.454   1.454   1.454   1.454   1.454   1.454   1.454   1.454   1.454   1.454   1.454   1.454   1.454   1.454   1.454   1.454   1.454   1.454   1.454   1.454   1.454   1.454   1.454   1.454   1.454   1.454   1.454   1.454   1.454   1.454   1.454   1.454   1.454   1.454   1.454   1.454   1.454   1.454   1.454   1.454   1.454   1.454   1.454   1.454   1.454   1.454   1.454   1.454   1.454   1.454   1.454   1.454   1.454   1.454   1.454   1.454
    86.00    1.454   1.454   1.454   1.454   1.454   1.454   1.454   1.454   1.454   1.454   1.454   1.454   1.454   1.454   1.454   1.454   1.454   1.454   1.454   1.454   1.454   1.454   1.454   1.454   1.454   1.454   1.454   1.454   1.454   1.454   1.454   1.454   1.454   1.454   1.454   1.454   1.454   1.454   1.454   1.454   1.454   1.454   1.454   1.454   1.454   1.454   1.454   1.454   1.454   1.454   1.454   1.454   1.454   1.454   1.454   1.454
    82.00    1.454   1.454   1.454   1.454   1.454   1.454   1.454   1.454   1.454   1.454   1.454   1.454   1.454   1.454   1.454   1.454   1.454   1.454   1.454   1.454   1.454   1.454   1.454   1.454   1.454   1.454   1.454   1.454   1.454   1.454   1.454   1.454   1.454   1.454   1.454   1.454   1.454   1.454   1.454   1.454   1.454   1.454   1.454   1.454   1.454   1.454   1.454   1.454   1.454   1.454   1.454   1.454   1.454   1.454   1.454   1.454
    78.00    1.454   1.454   1.454   1.454   1.454   1.454   1.454   1.454   1.454   1.454   1.454   1.454   1.454   1.454   1.454   1.454   1.454   1.454   1.454   1.454   1.454   1.454   1.454   1.454   1.454   1.454   1.454   1.454   1.454   1.454   1.454   1.454   1.454   1.454   1.454   1.454   1.454   1.454   1.454   1.454   1.454   1.454   1.454   1.454   1.454   1.454   1.454   1.454   1.454   1.454   1.454   1.454   1.454   1.454   1.454   1.454
    74.00    1.454   1.454   1.454   1.454   1.454   1.454   1.454   1.454   1.454   1.454   1.454   1.454   1.454   1.454   1.454   1.454   1.454   1.454   1.454   1.454   1.454   1.454   1.454   1.454   1.454   1.454   1.454   1.454   1.454   1.454   1.454   1.454   1.454   1.454   1.454   1.454   1.454   1.454   1.454   1.454   1.454   1.454   1.454   1.454   1.454   1.454   1.454   1.454   1.454   1.454   1.454   1.454   1.454   1.454   1.454   1.454
    70.00    1.454   1.454   1.454   1.454   1.454   1.454   1.454   1.454   1.454   1.454   1.454   1.454   1.454   1.454   1.454   1.454   1.454   1.454   1.454   1.454   1.454   1.454   1.454   1.454   1.454   1.454   1.454   1.454   1.454   1.454   1.454   1.454   1.454   1.454   1.454   1.454   1.454   1.454   1.454   1.454   1.454   1.454   1.454   1.454   1.454   1.454   1.454   1.454   1.454   1.454   1.454   1.454   1.454   1.454   1.454   1.454
    66.00    1.454   1.454   1.454   1.454   1.454   1.454   1.454   1.454   1.454   1.454   1.454   1.454   1.454   1.454   1.454   1.454   1.454   1.454   1.454   1.454   1.454   1.454   1.454   1.454   1.454   1.454   1.454   1.454   1.454   1.454   1.454   1.454   1.454   1.454   1.454   1.454   1.454   1.454   1.454   1.454   1.454   1.454   1.454   1.454   1.454   1.454   1.454   1.454   1.454   1.454   1.454   1.454   1.454   1.454   1.454   1.454
    62.00    1.454   1.454   1.454   1.454   1.454   1.454   1.454   1.454   1.454   1.454   1.454   1.454   1.454   1.454   1.454   1.454   1.454   1.454   1.454   1.454   1.454   1.454   1.454   1.454   1.454   1.454   1.454   1.454   1.454   1.454   1.454   1.454   1.454   1.454   1.454   1.454   1.454   1.454   1.454   1.454   1.454   1.454   1.454   1.454   1.454   1.454   1.454   1.454   1.454   1.454   1.454   1.454   1.454   1.454   1.454   1.454
    58.00    1.454   1.454   1.454   1.454   1.454   1.454   1.454   1.454   1.454   1.454   1.454   1.454   1.454   1.454   1.454   1.454   1.454   1.454   1.454   1.454   1.454   1.454   1.454   1.454   1.454   1.454   1.454   1.454   1.454   1.454   1.454   1.454   1.454   1.454   1.454   1.454   1.454   1.454   1.454   1.454   1.454   1.454   1.454   1.454   1.454   1.454   1.454   1.454   1.454   1.454   1.454   1.454   1.454   1.454   1.454   1.454
    54.00    1.454   1.454   1.454   1.454   1.454   1.454   1.454   1.454   1.454   1.454   1.454   1.454   1.454   1.454   1.454   1.454   1.454   1.454   1.454   1.454   1.454   1.454   1.454   1.454   1.454   1.454   1.454   1.454   1.454   1.454   1.454   1.454   1.454   1.454   1.454   1.454   1.454   1.454   1.454   1.454   1.454   1.454   1.454   1.454   1.454   1.454   1.454   1.454   1.454   1.454   1.454   1.454   1.454   1.454   1.454   1.454
    50.00    1.454   1.454   1.454   1.454   1.454   1.454   1.454   1.454   1.454   1.454   1.454   1.454   1.454   1.454   1.454   1.454   1.454   1.454   1.454   1.454   1.454   1.454   1.454   1.454   1.454   1.454   1.454   1.454   1.454   1.454   1.454   1.454   1.454   1.454   1.454   1.454   1.454   1.454   1.454   1.454   1.454   1.454   1.454   1.454   1.454   1.454   1.454   1.454   1.454   1.454   1.454   1.454   1.454   1.454   1.454   1.454
    46.00    1.454   1.454   1.454   1.454   1.454   1.454   1.454   1.454   1.454   1.454   1.454   1.454   1.454   1.454   1.454   1.454   1.454   1.454   1.454   1.454   1.454   1.454   1.454   1.454   1.454   1.454   1.454   1.454   1.454   1.454   1.454   1.454   1.454   1.454   1.454   1.454   1.454   1.454   1.454   1.454   1.454   1.454   1.454   1.454   1.454   1.454   1.454   1.454   1.454   1.454   1.454   1.454   1.454   1.454   1.454   1.454
    42.00    1.454   1.454   1.454   1.454   1.454   1.454   1.454   1.454   1.454   1.454   1.454   1.454   1.454   1.454   1.454   1.454   1.454   1.454   1.454   1.454   1.454   1.454   1.454   1.454   1.454   1.454   1.454   1.454   1.454   1.454   1.454   1.454   1.454   1.454   1.454   1.454   1.454   1.454   1.454   1.454   1.454   1.454   1.454   1.454   1.454   1.454   1.454   1.454   1.454   1.454   1.454   1.454   1.454   1.454   1.454   1.454
    38.00    1.454   1.454   1.454   1.454   1.454   1.454   1.454   1.454   1.454   1.454   1.454   1.454   1.454   1.454   1.454   1.454   1.454   1.454   1.454   1.454   1.454   1.454   1.454   1.454   1.454   1.454   1.454   1.454   1.454   1.454   1.454   1.454   1.454   1.454   1.454   1.454   1.454   1.454   1.454   1.454   1.454   1.454   1.454   1.454   1.454   1.454   1.454   1.454   1.454   1.454   1.454   1.454   1.454   1.454   1.454   1.454
    34.00    1.454   1.454   1.454   1.454   1.454   1.454   1.454   1.454   1.454   1.454   1.454   1.454   1.454   1.454   1.454   1.454   1.454   1.454   1.454   1.454   1.454   1.454   1.454   1.454   1.454   1.454   1.454   1.454   1.454   1.454   1.454   1.454   1.454   1.454   1.454   1.454   1.454   1.454   1.454   1.454   1.454   1.454   1.454   1.454   1.454   1.454   1.454   1.454   1.454   1.454   1.454   1.454   1.454   1.454   1.454   1.454
    30.00    1.454   1.454   1.454   1.454   1.454   1.454   1.454   1.454   1.454   1.454   1.454   1.454   1.454   1.454   1.454   1.454   1.454   1.454   1.454   1.454   1.454   1.454   1.454   1.454   1.454   1.454   1.454   1.454   1.454   1.454   1.454   1.454   1.454   1.454   1.454   1.454   1.454   1.454   1.454   1.454   1.454   1.454   1.454   1.454   1.454   1.454   1.454   1.454   1.454   1.454   1.454   1.454   1.454   1.454   1.454   1.454

   Mean standard deviation across all grid points:
      u component:    1.995 m/s
      v component:    2.053 m/s
      w component:    1.454 m/s


U-component (X) statistics from the interpolated hub point:

   Mean =  12.9998 m/s
   TI   =  12.8640 %

Nyquist frequency of turbulent wind field =        10.000 Hz


Processing complete.  183.61 CPU seconds used.
