
This summary file was generated by TurbSim (v1.50, 25-Sep-2009) on 09-Nov-2024 at 22:03:35.


Runtime Options:

**********  Random seed #1
    RANLUX  Type of random number generator
         F  Output binary HH turbulence parameters?
         F  Output formatted turbulence parameters?
         F  Output AeroDyn HH files?
         T  Output AeroDyn FF files?
         T  Output BLADED FF files?
         F  Output tower data?
         F  Output formatted FF files?
         F  Output coherent turbulence time step file?
         T  Clockwise rotation when looking downwind?
 0 -  NONE  IEC turbulence models scaled to exact specified standard deviation


Turbine/Model Specifications:

        53  Vertical grid-point matrix dimension
        53  Horizontal grid-point matrix dimension
     0.050  Time step [seconds]
   650.000  Analysis time [seconds]
   610.000  Usable output time [seconds]
   140.000  Hub height [m]
   260.000  Grid height [m]
   260.000  Grid width [m]
     0.000  Vertical flow angle [degrees]
     0.000  Horizontal flow angle [degrees]


Meteorological Boundary Conditions:

    IECKAI  IEC Kaimal spectral model
         1  IEC standard: IEC 61400-1 Ed. 3: 2005
         B  IEC turbulence characteristic
      3ETM  IEC Extreme Turbulence Model
     2.000  IEC Extreme Turbulence Model (ETM) "c" parameter [m/s]
       IEC  Wind profile type
   140.000  Reference height [m]
    25.000  Reference wind speed [m/s]
       N/A  Jet height [m]
     0.200  Power law exponent
     0.030  Surface roughness length [m]


You have requested that the following file(s) be generated:

   .\Turbsim.bts (AeroDyn/TurbSim full-field wind file)
   .\Turbsim.wnd (AeroDyn/BLADED full-field wnd file)


Turbulence Simulation Scaling Parameter Summary:

   Turbulence model used                            =  IEC Kaimal
   Turbulence characteristic                        =  3B
   IEC turbulence type                              =  Extreme Turbulence Model
   Reference wind speed average over 10 minutes     =   37.500 m/s
   Annual wind speed average at hub height          =    7.500 m/s
   IEC standard                                     =  IEC 61400-1 Ed. 3: 2005
   Mean wind speed at hub height                    =   25.000 m/s
   Expected value of turbulence intensity at 15 m/s =   14.000%
   Characteristic value of standard deviation       =    3.957 m/s
   Turbulence scale                                 =   42.000 m
   u-component integral scale                       =  340.200 m
   Coherency scale                                  =  340.200 m
   Characteristic value of hub turbulence intensity =   15.827%
   Gradient Richardson number                       =    0.000

   Wind profile type                                =  Power law on rotor disk, logarithmic elsewhere
   Power law exponent                               =    0.200
   Mean shear across rotor disk                     =    0.053 (m/s)/m
   Assumed rotor diameter                           =  260.000 m
   Surface roughness length                         =    0.030 m

   Number of time steps in the FFT                  =    13000
   Number of time steps output                      =    12408


Mean Flow Angles:

   Vertical   =   0.0 degrees
   Horizontal =   0.0 degrees

Mean Wind Speed Profile:

   Height    Wind Speed   Horizontal Angle  U-comp (X)   V-comp (Y)   W-comp (Z)
     (m)        (m/s)         (degrees)       (m/s)        (m/s)        (m/s)   
   ------    ----------   ----------------  ----------   ----------   ----------
    270.0       28.51            0.00         28.51         0.00         0.00
    265.0       28.40            0.00         28.40         0.00         0.00
    260.0       28.29            0.00         28.29         0.00         0.00
    255.0       28.19            0.00         28.19         0.00         0.00
    250.0       28.07            0.00         28.07         0.00         0.00
    245.0       27.96            0.00         27.96         0.00         0.00
    240.0       27.85            0.00         27.85         0.00         0.00
    235.0       27.73            0.00         27.73         0.00         0.00
    230.0       27.61            0.00         27.61         0.00         0.00
    225.0       27.49            0.00         27.49         0.00         0.00
    220.0       27.37            0.00         27.37         0.00         0.00
    215.0       27.24            0.00         27.24         0.00         0.00
    210.0       27.11            0.00         27.11         0.00         0.00
    205.0       26.98            0.00         26.98         0.00         0.00
    200.0       26.85            0.00         26.85         0.00         0.00
    195.0       26.71            0.00         26.71         0.00         0.00
    190.0       26.57            0.00         26.57         0.00         0.00
    185.0       26.43            0.00         26.43         0.00         0.00
    180.0       26.29            0.00         26.29         0.00         0.00
    175.0       26.14            0.00         26.14         0.00         0.00
    170.0       25.99            0.00         25.99         0.00         0.00
    165.0       25.84            0.00         25.84         0.00         0.00
    160.0       25.68            0.00         25.68         0.00         0.00
    155.0       25.51            0.00         25.51         0.00         0.00
    150.0       25.35            0.00         25.35         0.00         0.00
    145.0       25.18            0.00         25.18         0.00         0.00
    140.0       25.00            0.00         25.00         0.00         0.00
    135.0       24.82            0.00         24.82         0.00         0.00
    130.0       24.63            0.00         24.63         0.00         0.00
    125.0       24.44            0.00         24.44         0.00         0.00
    120.0       24.24            0.00         24.24         0.00         0.00
    115.0       24.04            0.00         24.04         0.00         0.00
    110.0       23.82            0.00         23.82         0.00         0.00
    105.0       23.60            0.00         23.60         0.00         0.00
    100.0       23.37            0.00         23.37         0.00         0.00
     95.0       23.13            0.00         23.13         0.00         0.00
     90.0       22.89            0.00         22.89         0.00         0.00
     85.0       22.63            0.00         22.63         0.00         0.00
     80.0       22.35            0.00         22.35         0.00         0.00
     75.0       22.07            0.00         22.07         0.00         0.00
     70.0       21.76            0.00         21.76         0.00         0.00
     65.0       21.44            0.00         21.44         0.00         0.00
     60.0       21.10            0.00         21.10         0.00         0.00
     55.0       20.74            0.00         20.74         0.00         0.00
     50.0       20.35            0.00         20.35         0.00         0.00
     45.0       19.92            0.00         19.92         0.00         0.00
     40.0       19.46            0.00         19.46         0.00         0.00
     35.0       18.95            0.00         18.95         0.00         0.00
     30.0       18.37            0.00         18.37         0.00         0.00
     25.0       17.71            0.00         17.71         0.00         0.00
     20.0       16.94            0.00         16.94         0.00         0.00
     15.0       15.99            0.00         15.99         0.00         0.00
     10.0       14.75            0.00         14.75         0.00         0.00


Harvested Random Seeds after Generation of the Random Numbers:

    508955588 K1
            0 K2


Hub-Height Simulated Turbulence Statistical Summary:

   Type of Wind        Min (m/s)   Mean (m/s)    Max (m/s)  Sigma (m/s)       TI (%)
   ----------------    ---------   ----------    ---------  -----------       ------
   Longitudinal (u)        12.53        25.00        38.95        3.924       15.697
   Lateral (v)             -9.60         0.00        11.34        3.105       12.421
   Vertical (w)            -7.25         0.00         6.85        1.914        7.657
   U component             12.53        25.00        38.95        3.924       15.697
   V component             -9.60         0.00        11.34        3.105       12.421
   W component             -7.25         0.00         6.85        1.914        7.657
   Horizontal (U&V)        12.63        25.20        38.99        3.892       15.447
   Total                   12.96        25.27        38.99        3.879       15.347

                       Min Reynolds     Mean Reynolds    Max Reynolds    Correlation
   Product             Stress (m/s)^2   Stress (m/s)^2   Stress (m/s)^2  Coefficient
   ----------------    --------------   --------------   --------------  -----------
   u'w'                    -47.621             0.287            45.536         0.038
   u'v'                    -80.620             0.220            60.291         0.018
   v'w'                    -47.572            -0.124            39.952        -0.021


   Friction Velocity (Ustar)  =      0.536 m/s
   Maximum Instantaneous TKE  =     98.760 (m/s)^2
   Maximum Instantaneous CTKE =     40.695 (m/s)^2


Grid Point Variance Summary:

   Y-coord -130.00 -125.00 -120.00 -115.00 -110.00 -105.00 -100.00  -95.00  -90.00  -85.00  -80.00  -75.00  -70.00  -65.00  -60.00  -55.00  -50.00  -45.00  -40.00  -35.00  -30.00  -25.00  -20.00  -15.00  -10.00   -5.00    0.00    5.00   10.00   15.00   20.00   25.00   30.00   35.00   40.00   45.00   50.00   55.00   60.00   65.00   70.00   75.00   80.00   85.00   90.00   95.00  100.00  105.00  110.00  115.00  120.00  125.00  130.00

   Height   Standard deviation at grid points for the u component:
   270.00    4.008   3.971   3.917   3.912   4.081   3.926   3.998   4.027   4.116   4.326   4.290   4.470   4.537   4.387   4.433   4.589   4.588   4.471   4.276   4.181   4.055   4.022   3.985   3.786   3.981   3.709   3.709   3.944   3.887   3.984   4.037   4.106   4.050   4.046   4.040   3.974   3.864   4.051   3.909   3.957   3.842   4.113   4.045   4.015   3.998   3.851   4.037   3.908   3.823   3.833   3.724   3.877   3.943
   265.00    3.997   4.027   3.925   3.903   3.980   3.920   3.936   4.011   4.114   4.293   4.276   4.347   4.367   4.390   4.269   4.461   4.357   4.348   4.234   4.088   3.980   3.816   3.739   3.857   3.845   3.747   3.660   3.824   3.782   3.876   3.821   3.907   3.986   3.810   3.811   3.813   3.766   3.912   3.841   3.807   3.820   3.981   3.990   4.038   4.170   4.127   3.936   3.859   3.735   3.691   3.739   3.817   3.867
   260.00    3.915   3.920   3.738   3.978   3.943   3.919   3.912   3.914   4.067   4.146   4.164   4.241   4.168   4.278   4.320   4.320   4.066   4.184   4.093   3.993   3.947   3.921   3.720   3.764   3.734   3.720   3.700   3.635   3.776   3.751   3.744   3.936   3.987   3.733   3.639   3.657   3.701   3.673   3.680   3.706   3.777   3.851   4.020   4.085   4.202   4.000   3.920   3.672   3.785   3.797   3.704   3.940   3.964
   255.00    3.980   3.939   3.860   3.831   3.874   3.892   3.957   4.078   4.058   3.923   4.048   4.018   4.043   4.190   4.206   4.127   4.185   4.094   4.193   4.086   4.020   3.903   3.654   3.603   3.610   3.829   3.767   3.708   3.606   3.601   3.790   3.775   3.836   3.740   3.676   3.702   3.648   3.599   3.620   3.761   3.755   3.888   4.104   4.152   4.182   3.956   3.720   3.686   3.796   3.811   3.773   3.890   3.952
   250.00    3.886   3.867   3.830   3.799   3.815   3.985   3.889   4.052   3.914   3.913   3.923   4.088   3.994   3.959   4.021   4.184   4.045   4.117   4.244   3.996   3.872   3.834   3.775   3.630   3.731   3.757   3.766   3.739   3.693   3.600   3.557   3.710   3.610   3.598   3.580   3.505   3.700   3.637   3.607   3.757   3.910   3.920   4.083   3.964   3.993   3.901   3.735   3.867   3.900   3.999   3.921   4.020   3.889
   245.00    3.785   3.740   3.678   3.794   3.836   3.884   3.849   3.872   3.618   3.680   3.849   3.974   3.874   3.940   3.933   4.029   4.005   4.101   4.036   3.985   3.912   3.785   3.787   3.740   3.779   3.771   3.857   3.674   3.778   3.546   3.590   3.661   3.577   3.560   3.493   3.516   3.489   3.592   3.625   3.788   3.724   3.831   4.037   3.798   3.829   3.761   3.837   3.968   3.842   3.968   4.053   4.064   3.950
   240.00    3.742   3.668   3.640   3.689   3.760   3.721   3.723   3.802   3.590   3.738   3.739   3.768   3.921   3.788   3.866   3.966   3.981   3.917   3.900   3.849   3.801   3.776   3.809   3.715   3.779   3.814   3.783   3.950   3.845   3.691   3.652   3.830   3.607   3.635   3.619   3.595   3.423   3.510   3.609   3.747   3.608   3.858   3.939   3.740   3.781   3.946   3.887   3.847   3.894   4.013   4.174   4.099   3.895
   235.00    3.607   3.572   3.551   3.719   3.739   3.775   3.783   3.825   3.797   3.918   3.898   3.959   3.754   3.762   3.891   3.859   3.725   3.812   3.894   3.809   3.708   3.812   3.788   3.706   3.917   3.861   3.886   3.839   3.768   3.817   3.729   3.719   3.616   3.644   3.482   3.607   3.491   3.560   3.659   3.677   3.743   3.631   3.794   3.795   3.722   3.921   3.910   3.845   4.063   4.124   4.256   4.098   3.910
   230.00    3.608   3.598   3.525   3.588   3.617   3.891   3.805   3.857   3.896   3.956   3.864   3.929   3.842   3.900   3.894   3.991   3.867   3.811   3.797   3.852   3.833   3.936   3.728   3.637   3.741   3.818   3.796   3.911   3.806   3.800   3.773   3.620   3.719   3.530   3.449   3.653   3.630   3.774   3.676   3.645   3.619   3.631   3.559   3.677   3.795   3.841   3.842   3.860   4.055   4.113   4.281   4.218   4.243
   225.00    3.516   3.514   3.492   3.559   3.584   3.901   3.906   3.934   3.822   3.827   4.012   3.988   4.000   4.092   4.069   3.903   4.006   3.929   3.923   3.922   3.822   4.037   3.952   3.761   3.876   3.673   3.790   3.719   3.823   3.781   3.831   3.750   3.765   3.671   3.529   3.687   3.597   3.638   3.695   3.551   3.586   3.598   3.532   3.622   3.663   3.700   3.832   3.972   3.939   4.183   4.187   4.277   4.309
   220.00    3.623   3.550   3.667   3.550   3.773   3.845   3.896   4.033   3.889   3.892   3.856   3.898   3.971   4.070   4.083   4.110   4.101   3.962   4.010   3.893   3.955   3.964   3.907   3.855   3.840   3.725   3.707   3.813   3.733   3.679   3.771   3.837   3.905   3.832   3.634   3.615   3.646   3.733   3.801   3.689   3.604   3.487   3.675   3.605   3.512   3.765   3.841   3.936   4.027   4.282   4.291   4.387   4.270
   215.00    3.560   3.695   3.700   3.724   3.783   3.877   4.110   3.864   3.952   3.697   3.807   3.900   3.946   3.895   3.990   3.951   3.979   4.079   4.085   4.062   3.924   3.825   3.773   3.787   3.770   3.836   3.682   3.647   3.684   3.658   3.646   3.733   3.791   3.754   3.634   3.585   3.603   3.685   3.749   3.668   3.631   3.540   3.666   3.617   3.687   3.775   3.767   3.888   4.053   4.293   4.375   4.322   4.303
   210.00    3.571   3.642   3.785   3.793   4.005   3.824   3.837   3.764   3.783   3.757   3.837   3.835   3.797   3.785   3.892   3.909   3.980   4.130   4.219   4.140   3.918   3.794   3.845   3.837   3.829   3.866   3.705   3.725   3.729   3.585   3.777   3.854   3.839   3.862   3.528   3.607   3.494   3.490   3.568   3.680   3.665   3.615   3.591   3.639   3.778   3.884   3.777   3.936   4.166   4.299   4.385   4.396   4.421
   205.00    3.759   3.741   3.824   3.768   3.909   3.897   3.716   3.739   3.669   3.768   3.699   3.790   3.885   3.818   3.942   3.947   3.870   4.009   3.994   4.143   4.082   4.010   3.955   3.836   3.763   3.805   3.774   3.833   3.705   3.651   3.684   3.869   3.809   3.693   3.579   3.592   3.690   3.738   3.796   3.580   3.756   3.708   3.666   3.608   3.825   3.785   3.868   3.904   4.226   4.412   4.371   4.514   4.450
   200.00    3.884   3.747   3.833   3.676   3.671   3.771   3.874   3.838   3.643   3.604   3.687   3.840   3.678   3.763   3.871   3.793   3.879   3.800   3.913   3.885   3.909   4.003   3.911   3.835   3.791   3.833   3.814   3.710   3.754   3.621   3.688   3.702   3.811   3.646   3.582   3.469   3.619   3.736   3.910   3.739   3.760   3.897   3.753   3.736   3.813   3.840   4.003   3.992   4.243   4.306   4.384   4.468   4.374
   195.00    3.932   3.956   3.800   3.783   3.755   3.831   3.732   3.730   3.643   3.514   3.515   3.634   3.835   3.850   3.835   3.792   3.664   3.719   3.710   3.821   3.831   3.851   3.921   3.783   3.806   3.763   3.876   3.778   3.753   3.596   3.650   3.631   3.589   3.553   3.575   3.558   3.553   3.787   3.880   3.926   3.873   3.887   3.813   3.832   3.850   4.122   4.165   4.242   4.262   4.178   4.409   4.414   4.393
   190.00    3.773   3.930   3.848   3.747   3.807   3.909   3.800   3.688   3.597   3.572   3.624   3.604   3.657   3.802   3.846   3.866   3.730   3.865   3.907   3.887   3.871   3.910   3.815   3.837   3.724   3.683   3.814   3.809   3.757   3.714   3.699   3.640   3.570   3.472   3.303   3.448   3.551   3.744   3.827   3.923   3.875   3.820   3.803   3.916   3.999   4.146   4.232   4.186   4.156   4.184   4.321   4.230   4.449
   185.00    3.788   3.823   3.855   3.834   3.806   3.845   3.825   3.665   3.724   3.616   3.519   3.641   3.762   3.880   3.884   3.866   3.980   3.921   3.851   3.946   3.875   3.740   3.804   3.609   3.605   3.777   3.814   3.963   3.799   3.695   3.831   3.779   3.754   3.488   3.519   3.395   3.389   3.637   3.791   3.817   3.695   3.790   3.771   3.888   4.118   4.216   4.239   4.207   4.165   4.098   4.186   4.273   4.264
   180.00    3.875   3.655   3.737   3.679   3.689   3.804   3.874   3.911   3.699   3.631   3.712   3.722   3.677   3.735   3.969   3.969   3.892   3.942   3.997   3.983   3.786   3.686   3.790   3.612   3.510   3.616   3.943   3.964   3.823   3.729   3.710   3.729   3.699   3.578   3.455   3.532   3.525   3.566   3.677   3.765   3.722   3.886   4.035   3.867   4.116   4.329   4.258   4.262   4.333   4.143   4.177   4.161   4.215
   175.00    3.850   3.835   3.777   3.621   3.704   3.834   3.866   3.844   3.824   3.641   3.650   3.792   3.732   3.973   3.962   4.018   4.008   4.172   4.062   3.922   4.035   3.962   3.918   3.729   3.685   3.693   3.747   3.911   3.885   3.852   3.693   3.680   3.683   3.643   3.578   3.536   3.645   3.676   3.725   3.796   3.721   3.929   4.122   4.099   4.114   4.192   4.130   4.284   4.265   4.354   4.273   4.119   4.289
   170.00    3.902   3.799   3.751   3.674   3.710   3.807   3.871   3.948   3.668   3.607   3.633   3.666   3.809   3.875   3.886   3.991   4.084   3.993   3.975   4.052   4.176   3.853   3.930   3.850   3.709   3.821   3.760   3.969   3.990   3.747   3.552   3.659   3.756   3.755   3.737   3.701   3.794   3.986   3.929   4.038   3.974   4.113   4.155   4.083   4.211   4.267   4.340   4.335   4.158   4.220   4.310   4.103   4.171
   165.00    3.863   3.891   3.706   3.741   3.784   3.900   4.005   3.863   3.629   3.629   3.625   3.722   3.669   3.846   3.822   3.885   3.992   3.885   3.806   4.006   4.229   3.983   3.845   3.839   3.860   4.013   3.953   3.965   4.013   3.876   3.795   3.844   3.942   3.795   3.927   3.957   3.935   3.759   3.997   3.876   4.084   4.229   4.169   4.200   4.388   4.278   4.354   4.296   4.204   4.341   4.300   4.156   4.027
   160.00    4.069   3.951   3.952   3.730   3.813   3.871   3.956   3.863   3.624   3.626   3.653   3.701   3.864   3.879   3.908   3.914   3.958   3.794   3.728   3.876   4.135   3.943   3.953   3.906   3.772   3.979   3.944   3.938   4.134   4.026   3.867   3.808   4.002   3.887   3.890   3.982   3.961   3.965   3.936   3.973   4.252   4.377   4.234   4.149   4.150   4.181   4.307   4.205   4.197   4.215   4.242   4.307   4.106
   155.00    4.054   3.831   3.843   3.718   3.747   3.696   4.027   3.968   3.765   3.657   3.687   3.652   3.718   3.761   3.907   4.006   3.971   3.867   3.765   3.796   4.024   4.084   4.019   3.858   3.826   3.929   4.027   4.065   3.918   3.988   3.993   3.946   4.116   4.020   4.055   4.074   3.926   4.072   4.092   4.366   4.421   4.172   4.121   4.121   4.045   4.177   4.125   4.404   4.328   4.150   4.222   4.209   4.297
   150.00    3.883   3.796   3.686   3.676   3.825   3.974   4.108   4.075   3.969   3.694   3.709   3.699   3.751   3.746   3.656   3.893   3.954   3.870   3.788   3.770   3.938   3.943   3.908   3.880   3.881   3.890   4.036   4.034   4.043   3.908   4.054   4.106   4.149   4.048   4.012   4.140   4.119   4.063   4.221   4.361   4.238   4.065   4.075   4.106   4.203   4.160   4.290   4.247   4.239   4.145   4.201   4.246   4.238
   145.00    3.908   3.672   3.717   3.746   3.840   3.951   4.013   4.130   3.940   3.939   3.760   3.824   3.858   3.843   3.776   3.872   3.772   3.804   3.830   3.820   3.813   3.815   3.829   3.770   3.897   3.893   4.036   4.055   4.035   3.918   4.051   4.085   4.098   4.086   4.080   4.065   4.163   4.088   4.221   4.184   4.129   4.075   4.147   4.200   4.260   4.203   4.350   4.145   4.031   4.249   4.370   4.361   4.337
   140.00    3.840   3.877   3.689   3.679   3.828   3.927   3.883   3.934   4.066   3.917   3.911   3.990   3.819   3.775   3.986   3.871   3.757   3.802   3.711   3.696   3.772   3.825   3.784   3.878   3.930   3.890   3.924   3.881   4.032   4.090   4.162   3.991   4.014   4.171   4.094   4.030   4.103   4.122   4.157   4.088   4.169   4.159   4.225   4.239   4.179   4.246   4.187   4.190   4.060   4.231   4.331   4.456   4.282
   135.00    3.907   3.833   3.822   3.871   3.985   3.933   3.826   3.980   4.047   4.063   4.001   3.869   3.872   3.847   3.974   3.882   3.849   3.769   3.722   3.846   3.821   3.893   3.940   4.006   3.868   3.862   3.885   3.955   3.998   4.152   4.184   4.209   4.173   4.149   4.250   4.228   4.117   4.203   4.265   4.240   4.143   4.043   4.165   4.169   4.229   4.178   4.177   4.115   4.065   4.027   4.227   4.460   4.380
   130.00    3.691   3.792   3.835   3.878   3.948   3.844   3.920   4.068   3.999   4.016   4.047   3.897   3.889   3.839   3.978   3.950   3.767   3.827   3.721   3.701   3.907   4.078   4.134   4.040   4.038   3.880   3.972   3.946   4.092   4.062   4.214   4.330   4.243   4.229   4.364   4.349   4.246   4.044   4.247   4.164   4.171   4.170   3.954   4.056   4.107   4.153   4.095   4.170   4.004   3.982   4.130   4.390   4.522
   125.00    3.827   3.890   3.872   3.816   3.983   3.901   3.922   4.078   4.171   4.149   4.077   4.042   4.107   4.023   3.866   3.937   3.819   3.870   3.858   3.756   3.952   3.945   3.970   3.976   3.851   3.902   3.980   4.064   4.028   4.132   4.269   4.353   4.417   4.193   4.379   4.269   4.274   4.130   4.246   4.319   4.211   4.048   4.069   4.017   4.035   4.186   4.095   4.126   3.964   4.045   4.055   4.068   4.331
   120.00    3.922   4.037   3.907   3.878   3.891   3.861   3.933   4.084   4.228   4.157   4.061   3.947   3.999   4.055   4.088   3.851   3.833   3.953   3.842   3.926   3.862   3.939   3.979   3.939   3.889   3.769   3.929   4.001   4.070   4.211   4.355   4.232   4.392   4.370   4.422   4.446   4.443   4.418   4.420   4.226   4.310   4.209   4.105   3.944   3.991   4.154   4.179   4.186   4.163   3.994   4.001   4.126   4.325
   115.00    3.880   3.974   3.977   4.005   3.979   3.988   3.882   4.088   4.151   4.058   3.983   3.875   4.065   3.917   3.982   3.855   3.923   3.962   3.999   3.923   4.000   3.856   3.902   3.896   3.796   3.780   3.862   3.886   4.177   4.470   4.434   4.522   4.477   4.456   4.344   4.384   4.444   4.571   4.490   4.303   4.321   4.276   4.242   4.128   4.058   4.168   4.236   4.246   4.141   4.172   4.094   4.209   4.244
   110.00    3.898   4.019   3.900   3.924   4.098   4.088   4.111   4.093   4.092   3.998   3.946   3.811   3.927   4.155   3.936   3.959   3.831   3.742   3.819   3.927   3.955   4.058   3.978   4.017   3.944   3.889   3.923   4.082   4.197   4.379   4.379   4.534   4.498   4.417   4.457   4.352   4.416   4.548   4.505   4.357   4.149   4.184   4.043   4.215   4.164   4.197   4.238   4.182   3.983   4.042   4.127   4.187   4.099
   105.00    3.826   3.919   3.865   4.036   4.081   4.168   4.186   4.128   4.176   4.084   4.082   4.037   4.013   4.093   3.928   3.825   3.897   3.694   3.788   3.845   3.938   3.926   3.866   3.996   3.860   3.962   4.044   4.067   4.225   4.277   4.345   4.549   4.415   4.428   4.310   4.371   4.342   4.402   4.371   4.295   4.199   4.125   4.145   4.333   4.359   4.353   4.363   4.203   4.198   4.202   4.126   4.018   4.028
   100.00    3.696   3.827   3.842   3.893   3.970   4.026   4.170   4.202   4.222   4.117   4.106   4.081   4.074   4.071   3.992   3.922   3.827   3.793   3.745   3.736   3.947   4.011   4.061   3.967   3.989   4.009   4.030   4.069   4.034   4.209   4.433   4.373   4.387   4.277   4.078   4.054   4.145   4.205   4.212   4.210   4.162   4.194   4.276   4.201   4.337   4.223   4.331   4.179   4.153   4.296   4.202   4.250   4.177
    95.00    3.753   3.676   3.682   3.709   3.970   4.087   4.196   4.027   4.023   4.067   4.148   4.146   4.032   3.966   3.892   3.963   3.968   3.881   3.798   3.898   4.038   3.936   4.092   4.000   3.854   3.879   4.078   4.024   4.016   4.161   4.261   4.349   4.275   4.210   3.992   4.034   4.038   4.069   4.093   3.920   4.112   4.236   4.222   4.261   4.184   4.193   4.258   4.301   4.169   4.443   4.371   4.327   4.432
    90.00    3.667   3.547   3.581   3.533   3.740   3.977   4.227   4.163   4.085   4.063   4.075   3.994   3.930   3.981   3.968   3.890   3.988   3.896   3.878   3.816   3.974   4.025   3.917   4.037   4.061   4.009   3.977   3.995   3.850   4.031   4.130   4.157   4.140   4.116   4.017   4.097   4.009   3.982   4.091   4.026   4.051   4.236   4.266   4.308   4.200   4.210   4.118   4.035   4.134   4.261   4.139   4.242   4.327
    85.00    3.560   3.606   3.457   3.675   3.723   3.950   4.142   4.154   4.128   4.029   4.079   3.958   3.975   3.953   3.925   3.978   3.952   3.919   3.817   3.904   3.820   3.906   3.968   3.937   3.984   4.062   4.096   3.998   3.947   4.018   4.164   4.075   4.097   4.194   4.256   4.239   4.149   4.181   4.216   4.203   4.140   4.231   4.283   4.186   4.181   4.227   4.148   4.111   3.918   4.214   4.038   4.099   4.103
    80.00    3.555   3.640   3.625   3.765   3.886   3.967   4.056   4.092   4.256   4.088   4.052   4.116   4.090   4.039   3.862   3.852   4.024   3.864   3.832   3.892   3.785   3.740   3.754   3.875   3.931   4.005   4.090   3.965   4.094   4.171   4.232   4.172   4.127   4.323   4.340   4.320   4.234   4.115   4.227   4.203   4.071   4.235   4.104   4.177   4.100   4.121   4.156   4.063   4.202   4.111   4.132   4.120   4.046
    75.00    3.543   3.571   3.577   3.682   3.856   3.866   4.199   4.278   4.123   4.137   4.268   4.159   4.096   4.067   4.088   3.932   3.940   3.875   3.859   3.853   3.797   3.756   3.706   3.753   3.987   3.856   3.981   4.019   3.954   4.053   4.084   4.005   4.233   4.231   4.457   4.288   4.078   4.098   4.276   4.264   4.185   4.214   4.066   4.126   4.184   4.022   4.155   4.021   4.212   4.131   4.072   3.936   3.847
    70.00    3.702   3.566   3.503   3.709   3.828   3.908   4.226   4.434   4.384   4.369   4.258   4.128   4.111   4.185   4.156   3.945   3.925   4.036   3.887   3.923   3.712   3.703   3.806   3.817   3.881   3.992   3.942   4.080   4.152   4.104   3.987   4.120   4.305   4.187   4.223   4.102   4.034   4.076   4.193   4.217   4.379   4.192   4.170   4.212   4.231   4.019   3.963   4.054   4.088   4.108   3.928   3.757   3.870
    65.00    3.632   3.556   3.715   3.831   3.939   4.148   4.174   4.429   4.459   4.478   4.401   4.363   4.194   4.204   4.037   3.862   3.924   4.120   4.029   3.852   3.728   3.725   3.712   3.842   3.968   4.069   4.044   4.073   4.180   4.154   4.169   4.229   4.189   4.095   4.113   4.065   3.921   4.172   4.194   4.221   4.254   4.331   4.203   4.230   4.116   3.939   4.040   4.060   3.999   4.062   4.040   3.919   3.945
    60.00    3.601   3.737   3.871   3.942   3.947   4.178   4.286   4.331   4.293   4.409   4.294   4.186   4.214   4.072   3.920   3.969   4.045   4.103   3.949   3.821   3.861   3.802   3.770   3.752   3.946   4.083   4.174   4.141   4.111   4.208   4.257   4.211   4.116   4.080   4.152   4.155   4.032   4.149   4.191   4.046   4.036   4.219   4.406   4.215   4.233   4.235   4.258   4.127   4.031   4.119   4.052   3.990   4.009
    55.00    3.695   3.873   4.115   4.209   4.132   4.317   4.351   4.355   4.329   4.394   4.350   4.106   4.068   3.956   4.029   3.881   3.974   4.026   3.992   4.031   3.806   3.701   3.647   3.719   3.986   4.106   4.155   4.016   3.980   4.160   4.138   4.034   4.058   3.996   3.913   4.092   4.068   4.127   4.171   4.216   4.086   4.261   4.313   4.218   4.281   4.441   4.298   4.259   4.084   4.274   4.175   3.955   3.874
    50.00    3.797   3.920   4.125   4.199   4.197   4.362   4.487   4.401   4.255   4.202   4.239   4.012   4.089   3.992   3.968   3.884   3.889   3.837   4.001   4.009   3.914   3.835   3.666   3.738   3.858   4.024   4.133   4.044   4.023   4.089   4.255   4.149   4.039   3.995   4.126   4.014   4.123   4.192   4.155   4.178   4.233   4.278   4.101   4.279   4.144   4.413   4.460   4.369   4.157   4.278   4.313   4.094   3.939
    45.00    3.851   3.868   3.928   4.039   4.242   4.378   4.576   4.384   4.401   4.233   4.185   4.140   4.121   3.987   3.958   3.849   3.925   3.928   3.978   4.045   3.932   3.948   3.974   3.800   3.801   3.893   4.142   4.084   3.996   4.072   4.073   4.124   4.098   3.951   4.062   4.177   4.294   4.461   4.110   4.279   4.399   4.222   4.253   4.167   4.292   4.424   4.477   4.423   4.253   4.191   4.150   4.110   3.994
    40.00    3.730   3.669   3.758   3.953   4.152   4.319   4.376   4.372   4.285   4.398   4.262   4.160   4.035   4.083   3.935   3.791   3.883   3.954   3.962   3.973   3.944   4.104   3.999   3.868   3.728   3.894   4.065   4.073   3.811   3.816   3.826   3.978   4.145   4.177   4.042   4.170   4.275   4.326   4.325   4.300   4.439   4.412   4.314   4.396   4.329   4.571   4.581   4.640   4.438   4.321   4.210   4.044   4.014
    35.00    3.554   3.615   3.834   4.067   4.178   4.260   4.338   4.241   4.306   4.445   4.272   4.256   4.253   4.138   4.083   3.953   3.964   3.939   4.093   4.087   3.973   3.958   4.090   3.978   3.826   3.894   3.889   4.047   4.025   3.894   3.757   3.979   4.120   4.149   4.160   4.152   4.194   4.154   4.281   4.214   4.362   4.295   4.333   4.410   4.530   4.575   4.658   4.589   4.514   4.221   4.103   3.910   3.964
    30.00    3.656   3.692   3.858   3.894   4.083   4.207   4.204   4.266   4.394   4.375   4.285   4.137   4.296   4.379   4.177   4.121   4.102   4.030   4.054   4.145   4.182   4.035   4.018   4.117   4.179   3.899   3.941   3.934   3.993   3.904   3.865   3.961   4.103   4.183   4.181   4.220   4.198   4.319   4.353   4.359   4.376   4.273   4.363   4.527   4.437   4.563   4.622   4.609   4.478   4.321   4.205   3.985   3.954
    25.00    3.655   3.715   3.730   3.876   4.223   4.282   4.224   4.350   4.410   4.490   4.427   4.243   4.430   4.368   4.242   4.243   4.095   4.103   4.113   4.188   4.228   4.017   4.089   4.210   4.146   3.994   4.039   3.882   3.876   3.886   3.928   4.067   4.005   4.023   4.073   4.212   4.219   4.342   4.421   4.464   4.480   4.425   4.463   4.435   4.369   4.412   4.474   4.394   4.425   4.184   4.122   4.094   3.944
    20.00    3.802   3.878   3.850   4.064   4.119   4.273   4.315   4.340   4.370   4.476   4.316   4.298   4.311   4.302   4.300   4.315   4.197   4.127   4.097   4.217   4.166   4.129   4.107   4.184   4.040   4.033   3.928   4.015   3.875   3.898   4.021   3.951   3.997   4.110   4.227   4.177   4.380   4.322   4.405   4.404   4.371   4.253   4.292   4.347   4.293   4.481   4.352   4.349   4.233   4.100   3.969   3.931   4.120
    15.00    3.881   4.013   4.049   4.176   4.151   4.274   4.332   4.399   4.489   4.321   4.246   4.347   4.418   4.270   4.295   4.402   4.158   3.991   3.996   4.003   4.043   4.121   4.160   4.108   4.092   3.988   3.981   4.071   4.000   4.096   3.866   4.026   4.131   4.173   4.148   4.290   4.241   4.357   4.356   4.327   4.315   4.242   4.269   4.202   4.341   4.353   4.205   4.279   4.033   4.016   4.001   3.960   4.061
    10.00    3.853   3.910   4.001   4.086   4.183   4.118   4.207   4.237   4.409   4.321   4.281   4.256   4.385   4.287   4.448   4.359   4.192   4.091   4.033   4.020   4.139   4.178   3.952   3.978   3.970   3.987   4.044   4.172   4.139   4.093   3.878   3.995   3.948   4.090   4.183   4.253   4.292   4.308   4.391   4.371   4.123   4.242   4.340   4.178   4.309   4.438   4.359   4.176   4.237   4.050   3.903   3.950   4.129

   Height   Standard deviation at grid points for the v component:
   270.00    3.105   3.105   3.105   3.105   3.105   3.105   3.105   3.105   3.105   3.105   3.105   3.105   3.105   3.105   3.105   3.105   3.105   3.105   3.105   3.105   3.105   3.105   3.105   3.105   3.105   3.105   3.105   3.105   3.105   3.105   3.105   3.105   3.105   3.105   3.105   3.105   3.105   3.105   3.105   3.105   3.105   3.105   3.105   3.105   3.105   3.105   3.105   3.105   3.105   3.105   3.105   3.105   3.105
   265.00    3.105   3.105   3.105   3.105   3.105   3.105   3.105   3.105   3.105   3.105   3.105   3.105   3.105   3.105   3.105   3.105   3.105   3.105   3.105   3.105   3.105   3.105   3.105   3.105   3.105   3.105   3.105   3.105   3.105   3.105   3.105   3.105   3.105   3.105   3.105   3.105   3.105   3.105   3.105   3.105   3.105   3.105   3.105   3.105   3.105   3.105   3.105   3.105   3.105   3.105   3.105   3.105   3.105
   260.00    3.105   3.105   3.105   3.105   3.105   3.105   3.105   3.105   3.105   3.105   3.105   3.105   3.105   3.105   3.105   3.105   3.105   3.105   3.105   3.105   3.105   3.105   3.105   3.105   3.105   3.105   3.105   3.105   3.105   3.105   3.105   3.105   3.105   3.105   3.105   3.105   3.105   3.105   3.105   3.105   3.105   3.105   3.105   3.105   3.105   3.105   3.105   3.105   3.105   3.105   3.105   3.105   3.105
   255.00    3.105   3.105   3.105   3.105   3.105   3.105   3.105   3.105   3.105   3.105   3.105   3.105   3.105   3.105   3.105   3.105   3.105   3.105   3.105   3.105   3.105   3.105   3.105   3.105   3.105   3.105   3.105   3.105   3.105   3.105   3.105   3.105   3.105   3.105   3.105   3.105   3.105   3.105   3.105   3.105   3.105   3.105   3.105   3.105   3.105   3.105   3.105   3.105   3.105   3.105   3.105   3.105   3.105
   250.00    3.105   3.105   3.105   3.105   3.105   3.105   3.105   3.105   3.105   3.105   3.105   3.105   3.105   3.105   3.105   3.105   3.105   3.105   3.105   3.105   3.105   3.105   3.105   3.105   3.105   3.105   3.105   3.105   3.105   3.105   3.105   3.105   3.105   3.105   3.105   3.105   3.105   3.105   3.105   3.105   3.105   3.105   3.105   3.105   3.105   3.105   3.105   3.105   3.105   3.105   3.105   3.105   3.105
   245.00    3.105   3.105   3.105   3.105   3.105   3.105   3.105   3.105   3.105   3.105   3.105   3.105   3.105   3.105   3.105   3.105   3.105   3.105   3.105   3.105   3.105   3.105   3.105   3.105   3.105   3.105   3.105   3.105   3.105   3.105   3.105   3.105   3.105   3.105   3.105   3.105   3.105   3.105   3.105   3.105   3.105   3.105   3.105   3.105   3.105   3.105   3.105   3.105   3.105   3.105   3.105   3.105   3.105
   240.00    3.105   3.105   3.105   3.105   3.105   3.105   3.105   3.105   3.105   3.105   3.105   3.105   3.105   3.105   3.105   3.105   3.105   3.105   3.105   3.105   3.105   3.105   3.105   3.105   3.105   3.105   3.105   3.105   3.105   3.105   3.105   3.105   3.105   3.105   3.105   3.105   3.105   3.105   3.105   3.105   3.105   3.105   3.105   3.105   3.105   3.105   3.105   3.105   3.105   3.105   3.105   3.105   3.105
   235.00    3.105   3.105   3.105   3.105   3.105   3.105   3.105   3.105   3.105   3.105   3.105   3.105   3.105   3.105   3.105   3.105   3.105   3.105   3.105   3.105   3.105   3.105   3.105   3.105   3.105   3.105   3.105   3.105   3.105   3.105   3.105   3.105   3.105   3.105   3.105   3.105   3.105   3.105   3.105   3.105   3.105   3.105   3.105   3.105   3.105   3.105   3.105   3.105   3.105   3.105   3.105   3.105   3.105
   230.00    3.105   3.105   3.105   3.105   3.105   3.105   3.105   3.105   3.105   3.105   3.105   3.105   3.105   3.105   3.105   3.105   3.105   3.105   3.105   3.105   3.105   3.105   3.105   3.105   3.105   3.105   3.105   3.105   3.105   3.105   3.105   3.105   3.105   3.105   3.105   3.105   3.105   3.105   3.105   3.105   3.105   3.105   3.105   3.105   3.105   3.105   3.105   3.105   3.105   3.105   3.105   3.105   3.105
   225.00    3.105   3.105   3.105   3.105   3.105   3.105   3.105   3.105   3.105   3.105   3.105   3.105   3.105   3.105   3.105   3.105   3.105   3.105   3.105   3.105   3.105   3.105   3.105   3.105   3.105   3.105   3.105   3.105   3.105   3.105   3.105   3.105   3.105   3.105   3.105   3.105   3.105   3.105   3.105   3.105   3.105   3.105   3.105   3.105   3.105   3.105   3.105   3.105   3.105   3.105   3.105   3.105   3.105
   220.00    3.105   3.105   3.105   3.105   3.105   3.105   3.105   3.105   3.105   3.105   3.105   3.105   3.105   3.105   3.105   3.105   3.105   3.105   3.105   3.105   3.105   3.105   3.105   3.105   3.105   3.105   3.105   3.105   3.105   3.105   3.105   3.105   3.105   3.105   3.105   3.105   3.105   3.105   3.105   3.105   3.105   3.105   3.105   3.105   3.105   3.105   3.105   3.105   3.105   3.105   3.105   3.105   3.105
   215.00    3.105   3.105   3.105   3.105   3.105   3.105   3.105   3.105   3.105   3.105   3.105   3.105   3.105   3.105   3.105   3.105   3.105   3.105   3.105   3.105   3.105   3.105   3.105   3.105   3.105   3.105   3.105   3.105   3.105   3.105   3.105   3.105   3.105   3.105   3.105   3.105   3.105   3.105   3.105   3.105   3.105   3.105   3.105   3.105   3.105   3.105   3.105   3.105   3.105   3.105   3.105   3.105   3.105
   210.00    3.105   3.105   3.105   3.105   3.105   3.105   3.105   3.105   3.105   3.105   3.105   3.105   3.105   3.105   3.105   3.105   3.105   3.105   3.105   3.105   3.105   3.105   3.105   3.105   3.105   3.105   3.105   3.105   3.105   3.105   3.105   3.105   3.105   3.105   3.105   3.105   3.105   3.105   3.105   3.105   3.105   3.105   3.105   3.105   3.105   3.105   3.105   3.105   3.105   3.105   3.105   3.105   3.105
   205.00    3.105   3.105   3.105   3.105   3.105   3.105   3.105   3.105   3.105   3.105   3.105   3.105   3.105   3.105   3.105   3.105   3.105   3.105   3.105   3.105   3.105   3.105   3.105   3.105   3.105   3.105   3.105   3.105   3.105   3.105   3.105   3.105   3.105   3.105   3.105   3.105   3.105   3.105   3.105   3.105   3.105   3.105   3.105   3.105   3.105   3.105   3.105   3.105   3.105   3.105   3.105   3.105   3.105
   200.00    3.105   3.105   3.105   3.105   3.105   3.105   3.105   3.105   3.105   3.105   3.105   3.105   3.105   3.105   3.105   3.105   3.105   3.105   3.105   3.105   3.105   3.105   3.105   3.105   3.105   3.105   3.105   3.105   3.105   3.105   3.105   3.105   3.105   3.105   3.105   3.105   3.105   3.105   3.105   3.105   3.105   3.105   3.105   3.105   3.105   3.105   3.105   3.105   3.105   3.105   3.105   3.105   3.105
   195.00    3.105   3.105   3.105   3.105   3.105   3.105   3.105   3.105   3.105   3.105   3.105   3.105   3.105   3.105   3.105   3.105   3.105   3.105   3.105   3.105   3.105   3.105   3.105   3.105   3.105   3.105   3.105   3.105   3.105   3.105   3.105   3.105   3.105   3.105   3.105   3.105   3.105   3.105   3.105   3.105   3.105   3.105   3.105   3.105   3.105   3.105   3.105   3.105   3.105   3.105   3.105   3.105   3.105
   190.00    3.105   3.105   3.105   3.105   3.105   3.105   3.105   3.105   3.105   3.105   3.105   3.105   3.105   3.105   3.105   3.105   3.105   3.105   3.105   3.105   3.105   3.105   3.105   3.105   3.105   3.105   3.105   3.105   3.105   3.105   3.105   3.105   3.105   3.105   3.105   3.105   3.105   3.105   3.105   3.105   3.105   3.105   3.105   3.105   3.105   3.105   3.105   3.105   3.105   3.105   3.105   3.105   3.105
   185.00    3.105   3.105   3.105   3.105   3.105   3.105   3.105   3.105   3.105   3.105   3.105   3.105   3.105   3.105   3.105   3.105   3.105   3.105   3.105   3.105   3.105   3.105   3.105   3.105   3.105   3.105   3.105   3.105   3.105   3.105   3.105   3.105   3.105   3.105   3.105   3.105   3.105   3.105   3.105   3.105   3.105   3.105   3.105   3.105   3.105   3.105   3.105   3.105   3.105   3.105   3.105   3.105   3.105
   180.00    3.105   3.105   3.105   3.105   3.105   3.105   3.105   3.105   3.105   3.105   3.105   3.105   3.105   3.105   3.105   3.105   3.105   3.105   3.105   3.105   3.105   3.105   3.105   3.105   3.105   3.105   3.105   3.105   3.105   3.105   3.105   3.105   3.105   3.105   3.105   3.105   3.105   3.105   3.105   3.105   3.105   3.105   3.105   3.105   3.105   3.105   3.105   3.105   3.105   3.105   3.105   3.105   3.105
   175.00    3.105   3.105   3.105   3.105   3.105   3.105   3.105   3.105   3.105   3.105   3.105   3.105   3.105   3.105   3.105   3.105   3.105   3.105   3.105   3.105   3.105   3.105   3.105   3.105   3.105   3.105   3.105   3.105   3.105   3.105   3.105   3.105   3.105   3.105   3.105   3.105   3.105   3.105   3.105   3.105   3.105   3.105   3.105   3.105   3.105   3.105   3.105   3.105   3.105   3.105   3.105   3.105   3.105
   170.00    3.105   3.105   3.105   3.105   3.105   3.105   3.105   3.105   3.105   3.105   3.105   3.105   3.105   3.105   3.105   3.105   3.105   3.105   3.105   3.105   3.105   3.105   3.105   3.105   3.105   3.105   3.105   3.105   3.105   3.105   3.105   3.105   3.105   3.105   3.105   3.105   3.105   3.105   3.105   3.105   3.105   3.105   3.105   3.105   3.105   3.105   3.105   3.105   3.105   3.105   3.105   3.105   3.105
   165.00    3.105   3.105   3.105   3.105   3.105   3.105   3.105   3.105   3.105   3.105   3.105   3.105   3.105   3.105   3.105   3.105   3.105   3.105   3.105   3.105   3.105   3.105   3.105   3.105   3.105   3.105   3.105   3.105   3.105   3.105   3.105   3.105   3.105   3.105   3.105   3.105   3.105   3.105   3.105   3.105   3.105   3.105   3.105   3.105   3.105   3.105   3.105   3.105   3.105   3.105   3.105   3.105   3.105
   160.00    3.105   3.105   3.105   3.105   3.105   3.105   3.105   3.105   3.105   3.105   3.105   3.105   3.105   3.105   3.105   3.105   3.105   3.105   3.105   3.105   3.105   3.105   3.105   3.105   3.105   3.105   3.105   3.105   3.105   3.105   3.105   3.105   3.105   3.105   3.105   3.105   3.105   3.105   3.105   3.105   3.105   3.105   3.105   3.105   3.105   3.105   3.105   3.105   3.105   3.105   3.105   3.105   3.105
   155.00    3.105   3.105   3.105   3.105   3.105   3.105   3.105   3.105   3.105   3.105   3.105   3.105   3.105   3.105   3.105   3.105   3.105   3.105   3.105   3.105   3.105   3.105   3.105   3.105   3.105   3.105   3.105   3.105   3.105   3.105   3.105   3.105   3.105   3.105   3.105   3.105   3.105   3.105   3.105   3.105   3.105   3.105   3.105   3.105   3.105   3.105   3.105   3.105   3.105   3.105   3.105   3.105   3.105
   150.00    3.105   3.105   3.105   3.105   3.105   3.105   3.105   3.105   3.105   3.105   3.105   3.105   3.105   3.105   3.105   3.105   3.105   3.105   3.105   3.105   3.105   3.105   3.105   3.105   3.105   3.105   3.105   3.105   3.105   3.105   3.105   3.105   3.105   3.105   3.105   3.105   3.105   3.105   3.105   3.105   3.105   3.105   3.105   3.105   3.105   3.105   3.105   3.105   3.105   3.105   3.105   3.105   3.105
   145.00    3.105   3.105   3.105   3.105   3.105   3.105   3.105   3.105   3.105   3.105   3.105   3.105   3.105   3.105   3.105   3.105   3.105   3.105   3.105   3.105   3.105   3.105   3.105   3.105   3.105   3.105   3.105   3.105   3.105   3.105   3.105   3.105   3.105   3.105   3.105   3.105   3.105   3.105   3.105   3.105   3.105   3.105   3.105   3.105   3.105   3.105   3.105   3.105   3.105   3.105   3.105   3.105   3.105
   140.00    3.105   3.105   3.105   3.105   3.105   3.105   3.105   3.105   3.105   3.105   3.105   3.105   3.105   3.105   3.105   3.105   3.105   3.105   3.105   3.105   3.105   3.105   3.105   3.105   3.105   3.105   3.105   3.105   3.105   3.105   3.105   3.105   3.105   3.105   3.105   3.105   3.105   3.105   3.105   3.105   3.105   3.105   3.105   3.105   3.105   3.105   3.105   3.105   3.105   3.105   3.105   3.105   3.105
   135.00    3.105   3.105   3.105   3.105   3.105   3.105   3.105   3.105   3.105   3.105   3.105   3.105   3.105   3.105   3.105   3.105   3.105   3.105   3.105   3.105   3.105   3.105   3.105   3.105   3.105   3.105   3.105   3.105   3.105   3.105   3.105   3.105   3.105   3.105   3.105   3.105   3.105   3.105   3.105   3.105   3.105   3.105   3.105   3.105   3.105   3.105   3.105   3.105   3.105   3.105   3.105   3.105   3.105
   130.00    3.105   3.105   3.105   3.105   3.105   3.105   3.105   3.105   3.105   3.105   3.105   3.105   3.105   3.105   3.105   3.105   3.105   3.105   3.105   3.105   3.105   3.105   3.105   3.105   3.105   3.105   3.105   3.105   3.105   3.105   3.105   3.105   3.105   3.105   3.105   3.105   3.105   3.105   3.105   3.105   3.105   3.105   3.105   3.105   3.105   3.105   3.105   3.105   3.105   3.105   3.105   3.105   3.105
   125.00    3.105   3.105   3.105   3.105   3.105   3.105   3.105   3.105   3.105   3.105   3.105   3.105   3.105   3.105   3.105   3.105   3.105   3.105   3.105   3.105   3.105   3.105   3.105   3.105   3.105   3.105   3.105   3.105   3.105   3.105   3.105   3.105   3.105   3.105   3.105   3.105   3.105   3.105   3.105   3.105   3.105   3.105   3.105   3.105   3.105   3.105   3.105   3.105   3.105   3.105   3.105   3.105   3.105
   120.00    3.105   3.105   3.105   3.105   3.105   3.105   3.105   3.105   3.105   3.105   3.105   3.105   3.105   3.105   3.105   3.105   3.105   3.105   3.105   3.105   3.105   3.105   3.105   3.105   3.105   3.105   3.105   3.105   3.105   3.105   3.105   3.105   3.105   3.105   3.105   3.105   3.105   3.105   3.105   3.105   3.105   3.105   3.105   3.105   3.105   3.105   3.105   3.105   3.105   3.105   3.105   3.105   3.105
   115.00    3.105   3.105   3.105   3.105   3.105   3.105   3.105   3.105   3.105   3.105   3.105   3.105   3.105   3.105   3.105   3.105   3.105   3.105   3.105   3.105   3.105   3.105   3.105   3.105   3.105   3.105   3.105   3.105   3.105   3.105   3.105   3.105   3.105   3.105   3.105   3.105   3.105   3.105   3.105   3.105   3.105   3.105   3.105   3.105   3.105   3.105   3.105   3.105   3.105   3.105   3.105   3.105   3.105
   110.00    3.105   3.105   3.105   3.105   3.105   3.105   3.105   3.105   3.105   3.105   3.105   3.105   3.105   3.105   3.105   3.105   3.105   3.105   3.105   3.105   3.105   3.105   3.105   3.105   3.105   3.105   3.105   3.105   3.105   3.105   3.105   3.105   3.105   3.105   3.105   3.105   3.105   3.105   3.105   3.105   3.105   3.105   3.105   3.105   3.105   3.105   3.105   3.105   3.105   3.105   3.105   3.105   3.105
   105.00    3.105   3.105   3.105   3.105   3.105   3.105   3.105   3.105   3.105   3.105   3.105   3.105   3.105   3.105   3.105   3.105   3.105   3.105   3.105   3.105   3.105   3.105   3.105   3.105   3.105   3.105   3.105   3.105   3.105   3.105   3.105   3.105   3.105   3.105   3.105   3.105   3.105   3.105   3.105   3.105   3.105   3.105   3.105   3.105   3.105   3.105   3.105   3.105   3.105   3.105   3.105   3.105   3.105
   100.00    3.105   3.105   3.105   3.105   3.105   3.105   3.105   3.105   3.105   3.105   3.105   3.105   3.105   3.105   3.105   3.105   3.105   3.105   3.105   3.105   3.105   3.105   3.105   3.105   3.105   3.105   3.105   3.105   3.105   3.105   3.105   3.105   3.105   3.105   3.105   3.105   3.105   3.105   3.105   3.105   3.105   3.105   3.105   3.105   3.105   3.105   3.105   3.105   3.105   3.105   3.105   3.105   3.105
    95.00    3.105   3.105   3.105   3.105   3.105   3.105   3.105   3.105   3.105   3.105   3.105   3.105   3.105   3.105   3.105   3.105   3.105   3.105   3.105   3.105   3.105   3.105   3.105   3.105   3.105   3.105   3.105   3.105   3.105   3.105   3.105   3.105   3.105   3.105   3.105   3.105   3.105   3.105   3.105   3.105   3.105   3.105   3.105   3.105   3.105   3.105   3.105   3.105   3.105   3.105   3.105   3.105   3.105
    90.00    3.105   3.105   3.105   3.105   3.105   3.105   3.105   3.105   3.105   3.105   3.105   3.105   3.105   3.105   3.105   3.105   3.105   3.105   3.105   3.105   3.105   3.105   3.105   3.105   3.105   3.105   3.105   3.105   3.105   3.105   3.105   3.105   3.105   3.105   3.105   3.105   3.105   3.105   3.105   3.105   3.105   3.105   3.105   3.105   3.105   3.105   3.105   3.105   3.105   3.105   3.105   3.105   3.105
    85.00    3.105   3.105   3.105   3.105   3.105   3.105   3.105   3.105   3.105   3.105   3.105   3.105   3.105   3.105   3.105   3.105   3.105   3.105   3.105   3.105   3.105   3.105   3.105   3.105   3.105   3.105   3.105   3.105   3.105   3.105   3.105   3.105   3.105   3.105   3.105   3.105   3.105   3.105   3.105   3.105   3.105   3.105   3.105   3.105   3.105   3.105   3.105   3.105   3.105   3.105   3.105   3.105   3.105
    80.00    3.105   3.105   3.105   3.105   3.105   3.105   3.105   3.105   3.105   3.105   3.105   3.105   3.105   3.105   3.105   3.105   3.105   3.105   3.105   3.105   3.105   3.105   3.105   3.105   3.105   3.105   3.105   3.105   3.105   3.105   3.105   3.105   3.105   3.105   3.105   3.105   3.105   3.105   3.105   3.105   3.105   3.105   3.105   3.105   3.105   3.105   3.105   3.105   3.105   3.105   3.105   3.105   3.105
    75.00    3.105   3.105   3.105   3.105   3.105   3.105   3.105   3.105   3.105   3.105   3.105   3.105   3.105   3.105   3.105   3.105   3.105   3.105   3.105   3.105   3.105   3.105   3.105   3.105   3.105   3.105   3.105   3.105   3.105   3.105   3.105   3.105   3.105   3.105   3.105   3.105   3.105   3.105   3.105   3.105   3.105   3.105   3.105   3.105   3.105   3.105   3.105   3.105   3.105   3.105   3.105   3.105   3.105
    70.00    3.105   3.105   3.105   3.105   3.105   3.105   3.105   3.105   3.105   3.105   3.105   3.105   3.105   3.105   3.105   3.105   3.105   3.105   3.105   3.105   3.105   3.105   3.105   3.105   3.105   3.105   3.105   3.105   3.105   3.105   3.105   3.105   3.105   3.105   3.105   3.105   3.105   3.105   3.105   3.105   3.105   3.105   3.105   3.105   3.105   3.105   3.105   3.105   3.105   3.105   3.105   3.105   3.105
    65.00    3.105   3.105   3.105   3.105   3.105   3.105   3.105   3.105   3.105   3.105   3.105   3.105   3.105   3.105   3.105   3.105   3.105   3.105   3.105   3.105   3.105   3.105   3.105   3.105   3.105   3.105   3.105   3.105   3.105   3.105   3.105   3.105   3.105   3.105   3.105   3.105   3.105   3.105   3.105   3.105   3.105   3.105   3.105   3.105   3.105   3.105   3.105   3.105   3.105   3.105   3.105   3.105   3.105
    60.00    3.105   3.105   3.105   3.105   3.105   3.105   3.105   3.105   3.105   3.105   3.105   3.105   3.105   3.105   3.105   3.105   3.105   3.105   3.105   3.105   3.105   3.105   3.105   3.105   3.105   3.105   3.105   3.105   3.105   3.105   3.105   3.105   3.105   3.105   3.105   3.105   3.105   3.105   3.105   3.105   3.105   3.105   3.105   3.105   3.105   3.105   3.105   3.105   3.105   3.105   3.105   3.105   3.105
    55.00    3.105   3.105   3.105   3.105   3.105   3.105   3.105   3.105   3.105   3.105   3.105   3.105   3.105   3.105   3.105   3.105   3.105   3.105   3.105   3.105   3.105   3.105   3.105   3.105   3.105   3.105   3.105   3.105   3.105   3.105   3.105   3.105   3.105   3.105   3.105   3.105   3.105   3.105   3.105   3.105   3.105   3.105   3.105   3.105   3.105   3.105   3.105   3.105   3.105   3.105   3.105   3.105   3.105
    50.00    3.105   3.105   3.105   3.105   3.105   3.105   3.105   3.105   3.105   3.105   3.105   3.105   3.105   3.105   3.105   3.105   3.105   3.105   3.105   3.105   3.105   3.105   3.105   3.105   3.105   3.105   3.105   3.105   3.105   3.105   3.105   3.105   3.105   3.105   3.105   3.105   3.105   3.105   3.105   3.105   3.105   3.105   3.105   3.105   3.105   3.105   3.105   3.105   3.105   3.105   3.105   3.105   3.105
    45.00    3.105   3.105   3.105   3.105   3.105   3.105   3.105   3.105   3.105   3.105   3.105   3.105   3.105   3.105   3.105   3.105   3.105   3.105   3.105   3.105   3.105   3.105   3.105   3.105   3.105   3.105   3.105   3.105   3.105   3.105   3.105   3.105   3.105   3.105   3.105   3.105   3.105   3.105   3.105   3.105   3.105   3.105   3.105   3.105   3.105   3.105   3.105   3.105   3.105   3.105   3.105   3.105   3.105
    40.00    3.105   3.105   3.105   3.105   3.105   3.105   3.105   3.105   3.105   3.105   3.105   3.105   3.105   3.105   3.105   3.105   3.105   3.105   3.105   3.105   3.105   3.105   3.105   3.105   3.105   3.105   3.105   3.105   3.105   3.105   3.105   3.105   3.105   3.105   3.105   3.105   3.105   3.105   3.105   3.105   3.105   3.105   3.105   3.105   3.105   3.105   3.105   3.105   3.105   3.105   3.105   3.105   3.105
    35.00    3.105   3.105   3.105   3.105   3.105   3.105   3.105   3.105   3.105   3.105   3.105   3.105   3.105   3.105   3.105   3.105   3.105   3.105   3.105   3.105   3.105   3.105   3.105   3.105   3.105   3.105   3.105   3.105   3.105   3.105   3.105   3.105   3.105   3.105   3.105   3.105   3.105   3.105   3.105   3.105   3.105   3.105   3.105   3.105   3.105   3.105   3.105   3.105   3.105   3.105   3.105   3.105   3.105
    30.00    3.105   3.105   3.105   3.105   3.105   3.105   3.105   3.105   3.105   3.105   3.105   3.105   3.105   3.105   3.105   3.105   3.105   3.105   3.105   3.105   3.105   3.105   3.105   3.105   3.105   3.105   3.105   3.105   3.105   3.105   3.105   3.105   3.105   3.105   3.105   3.105   3.105   3.105   3.105   3.105   3.105   3.105   3.105   3.105   3.105   3.105   3.105   3.105   3.105   3.105   3.105   3.105   3.105
    25.00    3.105   3.105   3.105   3.105   3.105   3.105   3.105   3.105   3.105   3.105   3.105   3.105   3.105   3.105   3.105   3.105   3.105   3.105   3.105   3.105   3.105   3.105   3.105   3.105   3.105   3.105   3.105   3.105   3.105   3.105   3.105   3.105   3.105   3.105   3.105   3.105   3.105   3.105   3.105   3.105   3.105   3.105   3.105   3.105   3.105   3.105   3.105   3.105   3.105   3.105   3.105   3.105   3.105
    20.00    3.105   3.105   3.105   3.105   3.105   3.105   3.105   3.105   3.105   3.105   3.105   3.105   3.105   3.105   3.105   3.105   3.105   3.105   3.105   3.105   3.105   3.105   3.105   3.105   3.105   3.105   3.105   3.105   3.105   3.105   3.105   3.105   3.105   3.105   3.105   3.105   3.105   3.105   3.105   3.105   3.105   3.105   3.105   3.105   3.105   3.105   3.105   3.105   3.105   3.105   3.105   3.105   3.105
    15.00    3.105   3.105   3.105   3.105   3.105   3.105   3.105   3.105   3.105   3.105   3.105   3.105   3.105   3.105   3.105   3.105   3.105   3.105   3.105   3.105   3.105   3.105   3.105   3.105   3.105   3.105   3.105   3.105   3.105   3.105   3.105   3.105   3.105   3.105   3.105   3.105   3.105   3.105   3.105   3.105   3.105   3.105   3.105   3.105   3.105   3.105   3.105   3.105   3.105   3.105   3.105   3.105   3.105
    10.00    3.105   3.105   3.105   3.105   3.105   3.105   3.105   3.105   3.105   3.105   3.105   3.105   3.105   3.105   3.105   3.105   3.105   3.105   3.105   3.105   3.105   3.105   3.105   3.105   3.105   3.105   3.105   3.105   3.105   3.105   3.105   3.105   3.105   3.105   3.105   3.105   3.105   3.105   3.105   3.105   3.105   3.105   3.105   3.105   3.105   3.105   3.105   3.105   3.105   3.105   3.105   3.105   3.105

   Height   Standard deviation at grid points for the w component:
   270.00    1.914   1.914   1.914   1.914   1.914   1.914   1.914   1.914   1.914   1.914   1.914   1.914   1.914   1.914   1.914   1.914   1.914   1.914   1.914   1.914   1.914   1.914   1.914   1.914   1.914   1.914   1.914   1.914   1.914   1.914   1.914   1.914   1.914   1.914   1.914   1.914   1.914   1.914   1.914   1.914   1.914   1.914   1.914   1.914   1.914   1.914   1.914   1.914   1.914   1.914   1.914   1.914   1.914
   265.00    1.914   1.914   1.914   1.914   1.914   1.914   1.914   1.914   1.914   1.914   1.914   1.914   1.914   1.914   1.914   1.914   1.914   1.914   1.914   1.914   1.914   1.914   1.914   1.914   1.914   1.914   1.914   1.914   1.914   1.914   1.914   1.914   1.914   1.914   1.914   1.914   1.914   1.914   1.914   1.914   1.914   1.914   1.914   1.914   1.914   1.914   1.914   1.914   1.914   1.914   1.914   1.914   1.914
   260.00    1.914   1.914   1.914   1.914   1.914   1.914   1.914   1.914   1.914   1.914   1.914   1.914   1.914   1.914   1.914   1.914   1.914   1.914   1.914   1.914   1.914   1.914   1.914   1.914   1.914   1.914   1.914   1.914   1.914   1.914   1.914   1.914   1.914   1.914   1.914   1.914   1.914   1.914   1.914   1.914   1.914   1.914   1.914   1.914   1.914   1.914   1.914   1.914   1.914   1.914   1.914   1.914   1.914
   255.00    1.914   1.914   1.914   1.914   1.914   1.914   1.914   1.914   1.914   1.914   1.914   1.914   1.914   1.914   1.914   1.914   1.914   1.914   1.914   1.914   1.914   1.914   1.914   1.914   1.914   1.914   1.914   1.914   1.914   1.914   1.914   1.914   1.914   1.914   1.914   1.914   1.914   1.914   1.914   1.914   1.914   1.914   1.914   1.914   1.914   1.914   1.914   1.914   1.914   1.914   1.914   1.914   1.914
   250.00    1.914   1.914   1.914   1.914   1.914   1.914   1.914   1.914   1.914   1.914   1.914   1.914   1.914   1.914   1.914   1.914   1.914   1.914   1.914   1.914   1.914   1.914   1.914   1.914   1.914   1.914   1.914   1.914   1.914   1.914   1.914   1.914   1.914   1.914   1.914   1.914   1.914   1.914   1.914   1.914   1.914   1.914   1.914   1.914   1.914   1.914   1.914   1.914   1.914   1.914   1.914   1.914   1.914
   245.00    1.914   1.914   1.914   1.914   1.914   1.914   1.914   1.914   1.914   1.914   1.914   1.914   1.914   1.914   1.914   1.914   1.914   1.914   1.914   1.914   1.914   1.914   1.914   1.914   1.914   1.914   1.914   1.914   1.914   1.914   1.914   1.914   1.914   1.914   1.914   1.914   1.914   1.914   1.914   1.914   1.914   1.914   1.914   1.914   1.914   1.914   1.914   1.914   1.914   1.914   1.914   1.914   1.914
   240.00    1.914   1.914   1.914   1.914   1.914   1.914   1.914   1.914   1.914   1.914   1.914   1.914   1.914   1.914   1.914   1.914   1.914   1.914   1.914   1.914   1.914   1.914   1.914   1.914   1.914   1.914   1.914   1.914   1.914   1.914   1.914   1.914   1.914   1.914   1.914   1.914   1.914   1.914   1.914   1.914   1.914   1.914   1.914   1.914   1.914   1.914   1.914   1.914   1.914   1.914   1.914   1.914   1.914
   235.00    1.914   1.914   1.914   1.914   1.914   1.914   1.914   1.914   1.914   1.914   1.914   1.914   1.914   1.914   1.914   1.914   1.914   1.914   1.914   1.914   1.914   1.914   1.914   1.914   1.914   1.914   1.914   1.914   1.914   1.914   1.914   1.914   1.914   1.914   1.914   1.914   1.914   1.914   1.914   1.914   1.914   1.914   1.914   1.914   1.914   1.914   1.914   1.914   1.914   1.914   1.914   1.914   1.914
   230.00    1.914   1.914   1.914   1.914   1.914   1.914   1.914   1.914   1.914   1.914   1.914   1.914   1.914   1.914   1.914   1.914   1.914   1.914   1.914   1.914   1.914   1.914   1.914   1.914   1.914   1.914   1.914   1.914   1.914   1.914   1.914   1.914   1.914   1.914   1.914   1.914   1.914   1.914   1.914   1.914   1.914   1.914   1.914   1.914   1.914   1.914   1.914   1.914   1.914   1.914   1.914   1.914   1.914
   225.00    1.914   1.914   1.914   1.914   1.914   1.914   1.914   1.914   1.914   1.914   1.914   1.914   1.914   1.914   1.914   1.914   1.914   1.914   1.914   1.914   1.914   1.914   1.914   1.914   1.914   1.914   1.914   1.914   1.914   1.914   1.914   1.914   1.914   1.914   1.914   1.914   1.914   1.914   1.914   1.914   1.914   1.914   1.914   1.914   1.914   1.914   1.914   1.914   1.914   1.914   1.914   1.914   1.914
   220.00    1.914   1.914   1.914   1.914   1.914   1.914   1.914   1.914   1.914   1.914   1.914   1.914   1.914   1.914   1.914   1.914   1.914   1.914   1.914   1.914   1.914   1.914   1.914   1.914   1.914   1.914   1.914   1.914   1.914   1.914   1.914   1.914   1.914   1.914   1.914   1.914   1.914   1.914   1.914   1.914   1.914   1.914   1.914   1.914   1.914   1.914   1.914   1.914   1.914   1.914   1.914   1.914   1.914
   215.00    1.914   1.914   1.914   1.914   1.914   1.914   1.914   1.914   1.914   1.914   1.914   1.914   1.914   1.914   1.914   1.914   1.914   1.914   1.914   1.914   1.914   1.914   1.914   1.914   1.914   1.914   1.914   1.914   1.914   1.914   1.914   1.914   1.914   1.914   1.914   1.914   1.914   1.914   1.914   1.914   1.914   1.914   1.914   1.914   1.914   1.914   1.914   1.914   1.914   1.914   1.914   1.914   1.914
   210.00    1.914   1.914   1.914   1.914   1.914   1.914   1.914   1.914   1.914   1.914   1.914   1.914   1.914   1.914   1.914   1.914   1.914   1.914   1.914   1.914   1.914   1.914   1.914   1.914   1.914   1.914   1.914   1.914   1.914   1.914   1.914   1.914   1.914   1.914   1.914   1.914   1.914   1.914   1.914   1.914   1.914   1.914   1.914   1.914   1.914   1.914   1.914   1.914   1.914   1.914   1.914   1.914   1.914
   205.00    1.914   1.914   1.914   1.914   1.914   1.914   1.914   1.914   1.914   1.914   1.914   1.914   1.914   1.914   1.914   1.914   1.914   1.914   1.914   1.914   1.914   1.914   1.914   1.914   1.914   1.914   1.914   1.914   1.914   1.914   1.914   1.914   1.914   1.914   1.914   1.914   1.914   1.914   1.914   1.914   1.914   1.914   1.914   1.914   1.914   1.914   1.914   1.914   1.914   1.914   1.914   1.914   1.914
   200.00    1.914   1.914   1.914   1.914   1.914   1.914   1.914   1.914   1.914   1.914   1.914   1.914   1.914   1.914   1.914   1.914   1.914   1.914   1.914   1.914   1.914   1.914   1.914   1.914   1.914   1.914   1.914   1.914   1.914   1.914   1.914   1.914   1.914   1.914   1.914   1.914   1.914   1.914   1.914   1.914   1.914   1.914   1.914   1.914   1.914   1.914   1.914   1.914   1.914   1.914   1.914   1.914   1.914
   195.00    1.914   1.914   1.914   1.914   1.914   1.914   1.914   1.914   1.914   1.914   1.914   1.914   1.914   1.914   1.914   1.914   1.914   1.914   1.914   1.914   1.914   1.914   1.914   1.914   1.914   1.914   1.914   1.914   1.914   1.914   1.914   1.914   1.914   1.914   1.914   1.914   1.914   1.914   1.914   1.914   1.914   1.914   1.914   1.914   1.914   1.914   1.914   1.914   1.914   1.914   1.914   1.914   1.914
   190.00    1.914   1.914   1.914   1.914   1.914   1.914   1.914   1.914   1.914   1.914   1.914   1.914   1.914   1.914   1.914   1.914   1.914   1.914   1.914   1.914   1.914   1.914   1.914   1.914   1.914   1.914   1.914   1.914   1.914   1.914   1.914   1.914   1.914   1.914   1.914   1.914   1.914   1.914   1.914   1.914   1.914   1.914   1.914   1.914   1.914   1.914   1.914   1.914   1.914   1.914   1.914   1.914   1.914
   185.00    1.914   1.914   1.914   1.914   1.914   1.914   1.914   1.914   1.914   1.914   1.914   1.914   1.914   1.914   1.914   1.914   1.914   1.914   1.914   1.914   1.914   1.914   1.914   1.914   1.914   1.914   1.914   1.914   1.914   1.914   1.914   1.914   1.914   1.914   1.914   1.914   1.914   1.914   1.914   1.914   1.914   1.914   1.914   1.914   1.914   1.914   1.914   1.914   1.914   1.914   1.914   1.914   1.914
   180.00    1.914   1.914   1.914   1.914   1.914   1.914   1.914   1.914   1.914   1.914   1.914   1.914   1.914   1.914   1.914   1.914   1.914   1.914   1.914   1.914   1.914   1.914   1.914   1.914   1.914   1.914   1.914   1.914   1.914   1.914   1.914   1.914   1.914   1.914   1.914   1.914   1.914   1.914   1.914   1.914   1.914   1.914   1.914   1.914   1.914   1.914   1.914   1.914   1.914   1.914   1.914   1.914   1.914
   175.00    1.914   1.914   1.914   1.914   1.914   1.914   1.914   1.914   1.914   1.914   1.914   1.914   1.914   1.914   1.914   1.914   1.914   1.914   1.914   1.914   1.914   1.914   1.914   1.914   1.914   1.914   1.914   1.914   1.914   1.914   1.914   1.914   1.914   1.914   1.914   1.914   1.914   1.914   1.914   1.914   1.914   1.914   1.914   1.914   1.914   1.914   1.914   1.914   1.914   1.914   1.914   1.914   1.914
   170.00    1.914   1.914   1.914   1.914   1.914   1.914   1.914   1.914   1.914   1.914   1.914   1.914   1.914   1.914   1.914   1.914   1.914   1.914   1.914   1.914   1.914   1.914   1.914   1.914   1.914   1.914   1.914   1.914   1.914   1.914   1.914   1.914   1.914   1.914   1.914   1.914   1.914   1.914   1.914   1.914   1.914   1.914   1.914   1.914   1.914   1.914   1.914   1.914   1.914   1.914   1.914   1.914   1.914
   165.00    1.914   1.914   1.914   1.914   1.914   1.914   1.914   1.914   1.914   1.914   1.914   1.914   1.914   1.914   1.914   1.914   1.914   1.914   1.914   1.914   1.914   1.914   1.914   1.914   1.914   1.914   1.914   1.914   1.914   1.914   1.914   1.914   1.914   1.914   1.914   1.914   1.914   1.914   1.914   1.914   1.914   1.914   1.914   1.914   1.914   1.914   1.914   1.914   1.914   1.914   1.914   1.914   1.914
   160.00    1.914   1.914   1.914   1.914   1.914   1.914   1.914   1.914   1.914   1.914   1.914   1.914   1.914   1.914   1.914   1.914   1.914   1.914   1.914   1.914   1.914   1.914   1.914   1.914   1.914   1.914   1.914   1.914   1.914   1.914   1.914   1.914   1.914   1.914   1.914   1.914   1.914   1.914   1.914   1.914   1.914   1.914   1.914   1.914   1.914   1.914   1.914   1.914   1.914   1.914   1.914   1.914   1.914
   155.00    1.914   1.914   1.914   1.914   1.914   1.914   1.914   1.914   1.914   1.914   1.914   1.914   1.914   1.914   1.914   1.914   1.914   1.914   1.914   1.914   1.914   1.914   1.914   1.914   1.914   1.914   1.914   1.914   1.914   1.914   1.914   1.914   1.914   1.914   1.914   1.914   1.914   1.914   1.914   1.914   1.914   1.914   1.914   1.914   1.914   1.914   1.914   1.914   1.914   1.914   1.914   1.914   1.914
   150.00    1.914   1.914   1.914   1.914   1.914   1.914   1.914   1.914   1.914   1.914   1.914   1.914   1.914   1.914   1.914   1.914   1.914   1.914   1.914   1.914   1.914   1.914   1.914   1.914   1.914   1.914   1.914   1.914   1.914   1.914   1.914   1.914   1.914   1.914   1.914   1.914   1.914   1.914   1.914   1.914   1.914   1.914   1.914   1.914   1.914   1.914   1.914   1.914   1.914   1.914   1.914   1.914   1.914
   145.00    1.914   1.914   1.914   1.914   1.914   1.914   1.914   1.914   1.914   1.914   1.914   1.914   1.914   1.914   1.914   1.914   1.914   1.914   1.914   1.914   1.914   1.914   1.914   1.914   1.914   1.914   1.914   1.914   1.914   1.914   1.914   1.914   1.914   1.914   1.914   1.914   1.914   1.914   1.914   1.914   1.914   1.914   1.914   1.914   1.914   1.914   1.914   1.914   1.914   1.914   1.914   1.914   1.914
   140.00    1.914   1.914   1.914   1.914   1.914   1.914   1.914   1.914   1.914   1.914   1.914   1.914   1.914   1.914   1.914   1.914   1.914   1.914   1.914   1.914   1.914   1.914   1.914   1.914   1.914   1.914   1.914   1.914   1.914   1.914   1.914   1.914   1.914   1.914   1.914   1.914   1.914   1.914   1.914   1.914   1.914   1.914   1.914   1.914   1.914   1.914   1.914   1.914   1.914   1.914   1.914   1.914   1.914
   135.00    1.914   1.914   1.914   1.914   1.914   1.914   1.914   1.914   1.914   1.914   1.914   1.914   1.914   1.914   1.914   1.914   1.914   1.914   1.914   1.914   1.914   1.914   1.914   1.914   1.914   1.914   1.914   1.914   1.914   1.914   1.914   1.914   1.914   1.914   1.914   1.914   1.914   1.914   1.914   1.914   1.914   1.914   1.914   1.914   1.914   1.914   1.914   1.914   1.914   1.914   1.914   1.914   1.914
   130.00    1.914   1.914   1.914   1.914   1.914   1.914   1.914   1.914   1.914   1.914   1.914   1.914   1.914   1.914   1.914   1.914   1.914   1.914   1.914   1.914   1.914   1.914   1.914   1.914   1.914   1.914   1.914   1.914   1.914   1.914   1.914   1.914   1.914   1.914   1.914   1.914   1.914   1.914   1.914   1.914   1.914   1.914   1.914   1.914   1.914   1.914   1.914   1.914   1.914   1.914   1.914   1.914   1.914
   125.00    1.914   1.914   1.914   1.914   1.914   1.914   1.914   1.914   1.914   1.914   1.914   1.914   1.914   1.914   1.914   1.914   1.914   1.914   1.914   1.914   1.914   1.914   1.914   1.914   1.914   1.914   1.914   1.914   1.914   1.914   1.914   1.914   1.914   1.914   1.914   1.914   1.914   1.914   1.914   1.914   1.914   1.914   1.914   1.914   1.914   1.914   1.914   1.914   1.914   1.914   1.914   1.914   1.914
   120.00    1.914   1.914   1.914   1.914   1.914   1.914   1.914   1.914   1.914   1.914   1.914   1.914   1.914   1.914   1.914   1.914   1.914   1.914   1.914   1.914   1.914   1.914   1.914   1.914   1.914   1.914   1.914   1.914   1.914   1.914   1.914   1.914   1.914   1.914   1.914   1.914   1.914   1.914   1.914   1.914   1.914   1.914   1.914   1.914   1.914   1.914   1.914   1.914   1.914   1.914   1.914   1.914   1.914
   115.00    1.914   1.914   1.914   1.914   1.914   1.914   1.914   1.914   1.914   1.914   1.914   1.914   1.914   1.914   1.914   1.914   1.914   1.914   1.914   1.914   1.914   1.914   1.914   1.914   1.914   1.914   1.914   1.914   1.914   1.914   1.914   1.914   1.914   1.914   1.914   1.914   1.914   1.914   1.914   1.914   1.914   1.914   1.914   1.914   1.914   1.914   1.914   1.914   1.914   1.914   1.914   1.914   1.914
   110.00    1.914   1.914   1.914   1.914   1.914   1.914   1.914   1.914   1.914   1.914   1.914   1.914   1.914   1.914   1.914   1.914   1.914   1.914   1.914   1.914   1.914   1.914   1.914   1.914   1.914   1.914   1.914   1.914   1.914   1.914   1.914   1.914   1.914   1.914   1.914   1.914   1.914   1.914   1.914   1.914   1.914   1.914   1.914   1.914   1.914   1.914   1.914   1.914   1.914   1.914   1.914   1.914   1.914
   105.00    1.914   1.914   1.914   1.914   1.914   1.914   1.914   1.914   1.914   1.914   1.914   1.914   1.914   1.914   1.914   1.914   1.914   1.914   1.914   1.914   1.914   1.914   1.914   1.914   1.914   1.914   1.914   1.914   1.914   1.914   1.914   1.914   1.914   1.914   1.914   1.914   1.914   1.914   1.914   1.914   1.914   1.914   1.914   1.914   1.914   1.914   1.914   1.914   1.914   1.914   1.914   1.914   1.914
   100.00    1.914   1.914   1.914   1.914   1.914   1.914   1.914   1.914   1.914   1.914   1.914   1.914   1.914   1.914   1.914   1.914   1.914   1.914   1.914   1.914   1.914   1.914   1.914   1.914   1.914   1.914   1.914   1.914   1.914   1.914   1.914   1.914   1.914   1.914   1.914   1.914   1.914   1.914   1.914   1.914   1.914   1.914   1.914   1.914   1.914   1.914   1.914   1.914   1.914   1.914   1.914   1.914   1.914
    95.00    1.914   1.914   1.914   1.914   1.914   1.914   1.914   1.914   1.914   1.914   1.914   1.914   1.914   1.914   1.914   1.914   1.914   1.914   1.914   1.914   1.914   1.914   1.914   1.914   1.914   1.914   1.914   1.914   1.914   1.914   1.914   1.914   1.914   1.914   1.914   1.914   1.914   1.914   1.914   1.914   1.914   1.914   1.914   1.914   1.914   1.914   1.914   1.914   1.914   1.914   1.914   1.914   1.914
    90.00    1.914   1.914   1.914   1.914   1.914   1.914   1.914   1.914   1.914   1.914   1.914   1.914   1.914   1.914   1.914   1.914   1.914   1.914   1.914   1.914   1.914   1.914   1.914   1.914   1.914   1.914   1.914   1.914   1.914   1.914   1.914   1.914   1.914   1.914   1.914   1.914   1.914   1.914   1.914   1.914   1.914   1.914   1.914   1.914   1.914   1.914   1.914   1.914   1.914   1.914   1.914   1.914   1.914
    85.00    1.914   1.914   1.914   1.914   1.914   1.914   1.914   1.914   1.914   1.914   1.914   1.914   1.914   1.914   1.914   1.914   1.914   1.914   1.914   1.914   1.914   1.914   1.914   1.914   1.914   1.914   1.914   1.914   1.914   1.914   1.914   1.914   1.914   1.914   1.914   1.914   1.914   1.914   1.914   1.914   1.914   1.914   1.914   1.914   1.914   1.914   1.914   1.914   1.914   1.914   1.914   1.914   1.914
    80.00    1.914   1.914   1.914   1.914   1.914   1.914   1.914   1.914   1.914   1.914   1.914   1.914   1.914   1.914   1.914   1.914   1.914   1.914   1.914   1.914   1.914   1.914   1.914   1.914   1.914   1.914   1.914   1.914   1.914   1.914   1.914   1.914   1.914   1.914   1.914   1.914   1.914   1.914   1.914   1.914   1.914   1.914   1.914   1.914   1.914   1.914   1.914   1.914   1.914   1.914   1.914   1.914   1.914
    75.00    1.914   1.914   1.914   1.914   1.914   1.914   1.914   1.914   1.914   1.914   1.914   1.914   1.914   1.914   1.914   1.914   1.914   1.914   1.914   1.914   1.914   1.914   1.914   1.914   1.914   1.914   1.914   1.914   1.914   1.914   1.914   1.914   1.914   1.914   1.914   1.914   1.914   1.914   1.914   1.914   1.914   1.914   1.914   1.914   1.914   1.914   1.914   1.914   1.914   1.914   1.914   1.914   1.914
    70.00    1.914   1.914   1.914   1.914   1.914   1.914   1.914   1.914   1.914   1.914   1.914   1.914   1.914   1.914   1.914   1.914   1.914   1.914   1.914   1.914   1.914   1.914   1.914   1.914   1.914   1.914   1.914   1.914   1.914   1.914   1.914   1.914   1.914   1.914   1.914   1.914   1.914   1.914   1.914   1.914   1.914   1.914   1.914   1.914   1.914   1.914   1.914   1.914   1.914   1.914   1.914   1.914   1.914
    65.00    1.914   1.914   1.914   1.914   1.914   1.914   1.914   1.914   1.914   1.914   1.914   1.914   1.914   1.914   1.914   1.914   1.914   1.914   1.914   1.914   1.914   1.914   1.914   1.914   1.914   1.914   1.914   1.914   1.914   1.914   1.914   1.914   1.914   1.914   1.914   1.914   1.914   1.914   1.914   1.914   1.914   1.914   1.914   1.914   1.914   1.914   1.914   1.914   1.914   1.914   1.914   1.914   1.914
    60.00    1.914   1.914   1.914   1.914   1.914   1.914   1.914   1.914   1.914   1.914   1.914   1.914   1.914   1.914   1.914   1.914   1.914   1.914   1.914   1.914   1.914   1.914   1.914   1.914   1.914   1.914   1.914   1.914   1.914   1.914   1.914   1.914   1.914   1.914   1.914   1.914   1.914   1.914   1.914   1.914   1.914   1.914   1.914   1.914   1.914   1.914   1.914   1.914   1.914   1.914   1.914   1.914   1.914
    55.00    1.914   1.914   1.914   1.914   1.914   1.914   1.914   1.914   1.914   1.914   1.914   1.914   1.914   1.914   1.914   1.914   1.914   1.914   1.914   1.914   1.914   1.914   1.914   1.914   1.914   1.914   1.914   1.914   1.914   1.914   1.914   1.914   1.914   1.914   1.914   1.914   1.914   1.914   1.914   1.914   1.914   1.914   1.914   1.914   1.914   1.914   1.914   1.914   1.914   1.914   1.914   1.914   1.914
    50.00    1.914   1.914   1.914   1.914   1.914   1.914   1.914   1.914   1.914   1.914   1.914   1.914   1.914   1.914   1.914   1.914   1.914   1.914   1.914   1.914   1.914   1.914   1.914   1.914   1.914   1.914   1.914   1.914   1.914   1.914   1.914   1.914   1.914   1.914   1.914   1.914   1.914   1.914   1.914   1.914   1.914   1.914   1.914   1.914   1.914   1.914   1.914   1.914   1.914   1.914   1.914   1.914   1.914
    45.00    1.914   1.914   1.914   1.914   1.914   1.914   1.914   1.914   1.914   1.914   1.914   1.914   1.914   1.914   1.914   1.914   1.914   1.914   1.914   1.914   1.914   1.914   1.914   1.914   1.914   1.914   1.914   1.914   1.914   1.914   1.914   1.914   1.914   1.914   1.914   1.914   1.914   1.914   1.914   1.914   1.914   1.914   1.914   1.914   1.914   1.914   1.914   1.914   1.914   1.914   1.914   1.914   1.914
    40.00    1.914   1.914   1.914   1.914   1.914   1.914   1.914   1.914   1.914   1.914   1.914   1.914   1.914   1.914   1.914   1.914   1.914   1.914   1.914   1.914   1.914   1.914   1.914   1.914   1.914   1.914   1.914   1.914   1.914   1.914   1.914   1.914   1.914   1.914   1.914   1.914   1.914   1.914   1.914   1.914   1.914   1.914   1.914   1.914   1.914   1.914   1.914   1.914   1.914   1.914   1.914   1.914   1.914
    35.00    1.914   1.914   1.914   1.914   1.914   1.914   1.914   1.914   1.914   1.914   1.914   1.914   1.914   1.914   1.914   1.914   1.914   1.914   1.914   1.914   1.914   1.914   1.914   1.914   1.914   1.914   1.914   1.914   1.914   1.914   1.914   1.914   1.914   1.914   1.914   1.914   1.914   1.914   1.914   1.914   1.914   1.914   1.914   1.914   1.914   1.914   1.914   1.914   1.914   1.914   1.914   1.914   1.914
    30.00    1.914   1.914   1.914   1.914   1.914   1.914   1.914   1.914   1.914   1.914   1.914   1.914   1.914   1.914   1.914   1.914   1.914   1.914   1.914   1.914   1.914   1.914   1.914   1.914   1.914   1.914   1.914   1.914   1.914   1.914   1.914   1.914   1.914   1.914   1.914   1.914   1.914   1.914   1.914   1.914   1.914   1.914   1.914   1.914   1.914   1.914   1.914   1.914   1.914   1.914   1.914   1.914   1.914
    25.00    1.914   1.914   1.914   1.914   1.914   1.914   1.914   1.914   1.914   1.914   1.914   1.914   1.914   1.914   1.914   1.914   1.914   1.914   1.914   1.914   1.914   1.914   1.914   1.914   1.914   1.914   1.914   1.914   1.914   1.914   1.914   1.914   1.914   1.914   1.914   1.914   1.914   1.914   1.914   1.914   1.914   1.914   1.914   1.914   1.914   1.914   1.914   1.914   1.914   1.914   1.914   1.914   1.914
    20.00    1.914   1.914   1.914   1.914   1.914   1.914   1.914   1.914   1.914   1.914   1.914   1.914   1.914   1.914   1.914   1.914   1.914   1.914   1.914   1.914   1.914   1.914   1.914   1.914   1.914   1.914   1.914   1.914   1.914   1.914   1.914   1.914   1.914   1.914   1.914   1.914   1.914   1.914   1.914   1.914   1.914   1.914   1.914   1.914   1.914   1.914   1.914   1.914   1.914   1.914   1.914   1.914   1.914
    15.00    1.914   1.914   1.914   1.914   1.914   1.914   1.914   1.914   1.914   1.914   1.914   1.914   1.914   1.914   1.914   1.914   1.914   1.914   1.914   1.914   1.914   1.914   1.914   1.914   1.914   1.914   1.914   1.914   1.914   1.914   1.914   1.914   1.914   1.914   1.914   1.914   1.914   1.914   1.914   1.914   1.914   1.914   1.914   1.914   1.914   1.914   1.914   1.914   1.914   1.914   1.914   1.914   1.914
    10.00    1.914   1.914   1.914   1.914   1.914   1.914   1.914   1.914   1.914   1.914   1.914   1.914   1.914   1.914   1.914   1.914   1.914   1.914   1.914   1.914   1.914   1.914   1.914   1.914   1.914   1.914   1.914   1.914   1.914   1.914   1.914   1.914   1.914   1.914   1.914   1.914   1.914   1.914   1.914   1.914   1.914   1.914   1.914   1.914   1.914   1.914   1.914   1.914   1.914   1.914   1.914   1.914   1.914

   Mean standard deviation across all grid points:
      u component:    3.988 m/s
      v component:    3.105 m/s
      w component:    1.914 m/s


U-component (X) statistics from the hub grid point:

   Mean =  25.0000 m/s
   TI   =  15.6968 %

Nyquist frequency of turbulent wind field =        10.000 Hz


Processing complete.  3735.8 CPU seconds used.
