
This summary file was generated by TurbSim (v1.50, 25-Sep-2009) on 24-Oct-2024 at 12:52:46.


Runtime Options:

   2684749  Random seed #1
    RANLUX  Type of random number generator
         F  Output binary HH turbulence parameters?
         F  Output formatted turbulence parameters?
         F  Output AeroDyn HH files?
         T  Output AeroDyn FF files?
         T  Output BLADED FF files?
         F  Output tower data?
         F  Output formatted FF files?
         F  Output coherent turbulence time step file?
         T  Clockwise rotation when looking downwind?
 0 -  NONE  IEC turbulence models scaled to exact specified standard deviation


Turbine/Model Specifications:

        53  Vertical grid-point matrix dimension
        53  Horizontal grid-point matrix dimension
     0.050  Time step [seconds]
   650.000  Analysis time [seconds]
   610.000  Usable output time [seconds]
   140.000  Hub height [m]
   260.000  Grid height [m]
   260.000  Grid width [m]
     0.000  Vertical flow angle [degrees]
     0.000  Horizontal flow angle [degrees]


Meteorological Boundary Conditions:

    IECKAI  IEC Kaimal spectral model
         1  IEC standard: IEC 61400-1 Ed. 3: 2005
         B  IEC turbulence characteristic
    3EWM50  IEC Extreme 50-Year Wind Speed Model
       N/A  IEC Extreme Turbulence Model (ETM) "c" parameter [m/s]
       IEC  Wind profile type
   140.000  Reference height [m]
       N/A  Reference wind speed [m/s]
       N/A  Jet height [m]
       N/A  Power law exponent
     0.030  Surface roughness length [m]


You have requested that the following file(s) be generated:

   .\TurbSim.bts (AeroDyn/TurbSim full-field wind file)
   .\TurbSim.wnd (AeroDyn/BLADED full-field wnd file)


Turbulence Simulation Scaling Parameter Summary:

   Turbulence model used                            =  IEC Kaimal
   Turbulence characteristic                        =  3B
   IEC turbulence type                              =  Extreme 50-Year Wind Speed Model
   Reference wind speed average over 10 minutes     =   37.500 m/s
   Annual wind speed average at hub height          =    7.500 m/s
   IEC standard                                     =  IEC 61400-1 Ed. 3: 2005
   Mean wind speed at hub height                    =   37.500 m/s
   Expected value of turbulence intensity at 15 m/s =   14.000%
   Characteristic value of standard deviation       =    4.125 m/s
   Turbulence scale                                 =   42.000 m
   u-component integral scale                       =  340.200 m
   Coherency scale                                  =  340.200 m
   Characteristic value of hub turbulence intensity =   11.000%
   Gradient Richardson number                       =    0.000

   Wind profile type                                =  Power law on rotor disk, logarithmic elsewhere
   Power law exponent                               =    0.110
   Mean shear across rotor disk                     =    0.047 (m/s)/m
   Assumed rotor diameter                           =  260.000 m
   Surface roughness length                         =    0.030 m

   Number of time steps in the FFT                  =    13000
   Number of time steps output                      =    12339


Mean Flow Angles:

   Vertical   =   0.0 degrees
   Horizontal =   0.0 degrees

Mean Wind Speed Profile:

   Height    Wind Speed   Horizontal Angle  U-comp (X)   V-comp (Y)   W-comp (Z)
     (m)        (m/s)         (degrees)       (m/s)        (m/s)        (m/s)   
   ------    ----------   ----------------  ----------   ----------   ----------
    270.0       40.31            0.00         40.31         0.00         0.00
    265.0       40.23            0.00         40.23         0.00         0.00
    260.0       40.14            0.00         40.14         0.00         0.00
    255.0       40.06            0.00         40.06         0.00         0.00
    250.0       39.97            0.00         39.97         0.00         0.00
    245.0       39.88            0.00         39.88         0.00         0.00
    240.0       39.79            0.00         39.79         0.00         0.00
    235.0       39.70            0.00         39.70         0.00         0.00
    230.0       39.60            0.00         39.60         0.00         0.00
    225.0       39.51            0.00         39.51         0.00         0.00
    220.0       39.41            0.00         39.41         0.00         0.00
    215.0       39.31            0.00         39.31         0.00         0.00
    210.0       39.21            0.00         39.21         0.00         0.00
    205.0       39.11            0.00         39.11         0.00         0.00
    200.0       39.00            0.00         39.00         0.00         0.00
    195.0       38.89            0.00         38.89         0.00         0.00
    190.0       38.78            0.00         38.78         0.00         0.00
    185.0       38.67            0.00         38.67         0.00         0.00
    180.0       38.55            0.00         38.55         0.00         0.00
    175.0       38.43            0.00         38.43         0.00         0.00
    170.0       38.31            0.00         38.31         0.00         0.00
    165.0       38.18            0.00         38.18         0.00         0.00
    160.0       38.05            0.00         38.05         0.00         0.00
    155.0       37.92            0.00         37.92         0.00         0.00
    150.0       37.79            0.00         37.79         0.00         0.00
    145.0       37.65            0.00         37.65         0.00         0.00
    140.0       37.50            0.00         37.50         0.00         0.00
    135.0       37.35            0.00         37.35         0.00         0.00
    130.0       37.20            0.00         37.20         0.00         0.00
    125.0       37.04            0.00         37.04         0.00         0.00
    120.0       36.87            0.00         36.87         0.00         0.00
    115.0       36.70            0.00         36.70         0.00         0.00
    110.0       36.52            0.00         36.52         0.00         0.00
    105.0       36.33            0.00         36.33         0.00         0.00
    100.0       36.14            0.00         36.14         0.00         0.00
     95.0       35.93            0.00         35.93         0.00         0.00
     90.0       35.72            0.00         35.72         0.00         0.00
     85.0       35.50            0.00         35.50         0.00         0.00
     80.0       35.26            0.00         35.26         0.00         0.00
     75.0       35.01            0.00         35.01         0.00         0.00
     70.0       34.75            0.00         34.75         0.00         0.00
     65.0       34.46            0.00         34.46         0.00         0.00
     60.0       34.16            0.00         34.16         0.00         0.00
     55.0       33.84            0.00         33.84         0.00         0.00
     50.0       33.48            0.00         33.48         0.00         0.00
     45.0       33.10            0.00         33.10         0.00         0.00
     40.0       32.67            0.00         32.67         0.00         0.00
     35.0       32.20            0.00         32.20         0.00         0.00
     30.0       31.65            0.00         31.65         0.00         0.00
     25.0       31.03            0.00         31.03         0.00         0.00
     20.0       30.27            0.00         30.27         0.00         0.00
     15.0       29.33            0.00         29.33         0.00         0.00
     10.0       28.05            0.00         28.05         0.00         0.00


Harvested Random Seeds after Generation of the Random Numbers:

    508955588 K1
            0 K2


Hub-Height Simulated Turbulence Statistical Summary:

   Type of Wind        Min (m/s)   Mean (m/s)    Max (m/s)  Sigma (m/s)       TI (%)
   ----------------    ---------   ----------    ---------  -----------       ------
   Longitudinal (u)        25.13        37.50        53.03        4.176       11.136
   Lateral (v)            -11.13         0.00        10.71        3.233        8.621
   Vertical (w)            -7.82         0.00         7.86        1.977        5.273
   U component             25.13        37.50        53.03        4.176       11.136
   V component            -11.13         0.00        10.71        3.233        8.621
   W component             -7.82         0.00         7.86        1.977        5.273
   Horizontal (U&V)        25.15        37.64        53.16        4.164       11.063
   Total                   25.25        37.69        53.35        4.158       11.031

                       Min Reynolds     Mean Reynolds    Max Reynolds    Correlation
   Product             Stress (m/s)^2   Stress (m/s)^2   Stress (m/s)^2  Coefficient
   ----------------    --------------   --------------   --------------  -----------
   u'w'                    -44.383            -0.253            69.169        -0.031
   u'v'                    -77.141             0.099            96.684         0.007
   v'w'                    -46.284             0.775            50.652         0.121


   Friction Velocity (Ustar)  =      0.503 m/s
   Maximum Instantaneous TKE  =    137.665 (m/s)^2
   Maximum Instantaneous CTKE =     50.200 (m/s)^2


Grid Point Variance Summary:

   Y-coord -130.00 -125.00 -120.00 -115.00 -110.00 -105.00 -100.00  -95.00  -90.00  -85.00  -80.00  -75.00  -70.00  -65.00  -60.00  -55.00  -50.00  -45.00  -40.00  -35.00  -30.00  -25.00  -20.00  -15.00  -10.00   -5.00    0.00    5.00   10.00   15.00   20.00   25.00   30.00   35.00   40.00   45.00   50.00   55.00   60.00   65.00   70.00   75.00   80.00   85.00   90.00   95.00  100.00  105.00  110.00  115.00  120.00  125.00  130.00

   Height   Standard deviation at grid points for the u component:
   270.00    4.115   4.100   4.212   4.186   4.423   4.408   4.410   4.436   4.408   4.343   4.291   4.335   4.351   4.292   4.334   4.344   4.357   4.387   4.356   4.346   4.392   4.305   4.345   4.380   4.424   4.469   4.386   4.273   4.159   4.104   4.112   4.198   4.061   4.188   3.998   3.969   3.883   3.932   3.965   3.852   3.874   3.836   3.918   3.967   3.882   3.949   4.127   4.152   4.098   4.075   3.970   3.964   3.945
   265.00    3.943   4.124   4.122   4.393   4.523   4.524   4.471   4.320   4.222   4.302   4.349   4.290   4.362   4.392   4.300   4.321   4.516   4.324   4.277   4.286   4.357   4.358   4.372   4.309   4.401   4.485   4.412   4.219   4.355   4.268   4.136   4.049   4.068   3.980   4.018   3.985   3.927   3.966   4.056   3.917   3.868   3.844   3.827   3.935   3.931   4.021   4.021   4.116   4.086   4.007   4.016   3.923   3.891
   260.00    4.008   4.122   4.075   4.366   4.413   4.530   4.528   4.341   4.381   4.416   4.151   4.249   4.181   4.282   4.310   4.327   4.408   4.279   4.244   4.236   4.309   4.198   4.303   4.361   4.423   4.370   4.455   4.358   4.260   4.153   4.062   3.910   4.075   4.014   4.079   4.128   4.028   4.021   3.966   3.916   3.904   3.796   3.875   3.935   3.884   4.007   3.927   3.980   3.977   3.945   4.018   3.980   3.874
   255.00    4.027   4.150   4.160   4.399   4.290   4.460   4.429   4.435   4.426   4.387   4.356   4.084   4.169   4.235   4.280   4.289   4.412   4.210   4.246   4.434   4.313   4.171   4.224   4.308   4.206   4.188   4.200   4.201   4.251   4.249   4.106   4.022   3.993   3.931   3.967   4.032   4.144   4.129   4.008   3.868   3.926   3.766   3.773   3.768   3.823   3.929   3.860   3.893   3.885   3.899   3.958   3.922   3.821
   250.00    4.052   4.029   4.137   4.225   4.328   4.556   4.427   4.487   4.445   4.372   4.245   4.172   4.074   4.276   4.282   4.275   4.250   4.239   4.245   4.207   4.237   4.361   4.189   4.136   4.123   4.100   4.148   4.145   4.226   4.226   4.117   4.032   3.928   3.935   4.006   4.076   4.092   4.120   4.075   3.973   3.863   3.774   3.860   3.859   3.870   3.820   3.990   3.925   3.908   3.822   3.920   3.902   3.898
   245.00    3.927   4.091   4.236   4.202   4.320   4.500   4.393   4.382   4.400   4.360   4.243   4.182   4.152   4.287   4.274   4.215   4.150   4.366   4.182   4.092   4.179   4.240   4.169   4.042   4.150   4.133   4.113   4.235   4.115   4.174   4.219   4.125   3.913   4.022   4.028   4.134   4.158   4.165   4.125   3.969   4.042   3.922   3.881   3.857   3.932   3.979   3.965   3.967   3.978   3.860   3.908   3.827   3.977
   240.00    3.998   3.949   4.146   4.188   4.317   4.490   4.427   4.439   4.446   4.336   4.289   4.186   4.149   4.150   4.328   4.239   4.146   4.304   4.226   4.143   4.241   4.257   4.107   4.103   4.158   4.186   4.142   4.100   4.089   4.093   4.251   4.072   4.076   4.037   4.119   4.161   4.196   4.318   4.139   4.076   3.943   3.979   3.975   3.942   3.945   3.956   3.952   3.908   4.048   3.994   3.994   3.842   3.988
   235.00    3.884   3.901   3.962   4.139   4.295   4.450   4.320   4.396   4.366   4.426   4.401   4.258   4.141   4.178   4.307   4.233   4.294   4.227   4.190   4.198   4.260   4.200   4.222   4.016   4.070   4.092   4.136   4.111   4.032   4.026   4.161   4.186   4.071   4.074   4.245   4.376   4.395   4.359   4.342   4.114   3.960   3.976   3.964   3.863   4.001   4.076   4.022   4.076   4.026   3.988   3.976   3.959   3.894
   230.00    3.860   4.017   3.948   4.186   4.347   4.371   4.467   4.318   4.366   4.387   4.280   4.268   4.340   4.269   4.270   4.169   4.298   4.375   4.375   4.278   4.124   4.164   4.109   4.106   4.147   4.155   4.164   4.079   4.049   4.068   4.092   4.058   4.247   4.226   4.218   4.441   4.389   4.430   4.362   4.139   4.017   4.006   3.993   4.019   4.174   4.225   4.216   4.028   3.916   3.966   4.024   3.911   3.860
   225.00    3.839   4.029   3.959   4.012   4.230   4.305   4.354   4.323   4.298   4.444   4.390   4.308   4.272   4.239   4.190   4.411   4.280   4.313   4.322   4.256   4.182   4.288   4.199   4.227   4.290   4.273   4.168   4.146   4.093   4.118   4.176   4.120   4.194   4.309   4.401   4.485   4.494   4.325   4.290   4.148   4.127   4.030   4.107   4.048   4.183   4.152   4.214   4.097   4.104   4.082   4.018   3.931   3.926
   220.00    3.874   4.006   3.891   4.057   4.258   4.240   4.313   4.341   4.373   4.344   4.338   4.466   4.367   4.236   4.264   4.372   4.271   4.231   4.316   4.251   4.291   4.323   4.319   4.421   4.396   4.295   4.147   4.156   4.201   4.195   4.147   4.154   4.242   4.314   4.253   4.352   4.305   4.262   4.029   4.178   4.159   4.077   4.149   4.186   4.201   4.106   4.190   4.183   4.208   4.129   4.135   3.923   3.844
   215.00    3.939   4.039   3.962   4.103   4.126   4.293   4.470   4.317   4.266   4.393   4.323   4.312   4.324   4.356   4.261   4.226   4.370   4.423   4.314   4.364   4.276   4.256   4.439   4.399   4.348   4.155   4.177   4.239   4.196   4.320   4.189   4.225   4.280   4.346   4.384   4.337   4.355   4.294   4.173   4.165   4.195   4.188   4.213   4.113   3.995   4.090   4.270   4.311   4.213   4.193   3.956   3.964   3.824
   210.00    3.894   3.950   3.982   3.914   4.122   4.354   4.382   4.269   4.247   4.306   4.294   4.237   4.174   4.310   4.277   4.311   4.410   4.391   4.493   4.482   4.353   4.241   4.473   4.423   4.302   4.272   4.375   4.195   4.164   4.250   4.144   4.218   4.369   4.366   4.407   4.368   4.395   4.282   4.277   4.134   4.154   4.213   4.211   4.181   4.135   4.326   4.297   4.278   4.240   4.214   4.130   3.857   3.794
   205.00    3.918   3.987   3.904   4.014   4.174   4.343   4.344   4.414   4.320   4.279   4.252   4.311   4.213   4.186   4.305   4.415   4.419   4.395   4.482   4.418   4.443   4.455   4.418   4.362   4.434   4.357   4.346   4.290   4.216   4.262   4.185   4.244   4.254   4.279   4.406   4.345   4.325   4.400   4.251   4.138   4.055   4.048   4.184   4.263   4.251   4.213   4.274   4.180   4.258   4.213   4.150   4.017   3.775
   200.00    3.865   3.865   3.957   4.022   4.237   4.400   4.295   4.292   4.285   4.326   4.297   4.265   4.330   4.169   4.415   4.471   4.356   4.449   4.513   4.538   4.547   4.556   4.515   4.563   4.546   4.427   4.229   4.276   4.357   4.258   4.284   4.220   4.229   4.356   4.339   4.414   4.527   4.347   4.264   4.106   4.024   4.058   4.256   4.405   4.250   4.287   4.232   4.259   4.243   4.270   4.091   3.975   3.899
   195.00    3.890   3.914   3.904   3.964   4.185   4.423   4.345   4.363   4.308   4.310   4.408   4.405   4.332   4.321   4.407   4.467   4.605   4.452   4.628   4.587   4.695   4.705   4.614   4.516   4.524   4.559   4.421   4.536   4.536   4.325   4.246   4.290   4.321   4.375   4.376   4.416   4.291   4.428   4.345   4.180   4.077   4.244   4.342   4.430   4.448   4.481   4.318   4.319   4.392   4.264   4.181   4.144   4.091
   190.00    4.001   3.939   4.078   4.104   4.109   4.244   4.268   4.257   4.301   4.334   4.400   4.448   4.377   4.341   4.366   4.366   4.564   4.475   4.692   4.612   4.499   4.576   4.525   4.560   4.428   4.443   4.381   4.498   4.607   4.410   4.370   4.326   4.414   4.283   4.261   4.318   4.396   4.541   4.352   4.376   4.270   4.311   4.488   4.490   4.416   4.517   4.514   4.502   4.415   4.395   4.259   4.220   4.162
   185.00    3.941   4.017   4.227   4.150   4.109   4.058   4.217   4.414   4.405   4.414   4.344   4.425   4.395   4.373   4.297   4.347   4.471   4.429   4.485   4.506   4.538   4.498   4.500   4.438   4.458   4.392   4.361   4.409   4.460   4.449   4.290   4.169   4.162   4.126   4.303   4.244   4.306   4.366   4.396   4.404   4.336   4.423   4.547   4.512   4.561   4.646   4.640   4.628   4.584   4.493   4.324   4.101   4.098
   180.00    3.910   3.974   4.124   4.142   4.114   4.112   4.109   4.335   4.479   4.411   4.328   4.423   4.391   4.351   4.395   4.381   4.347   4.377   4.408   4.317   4.368   4.307   4.343   4.371   4.398   4.350   4.270   4.469   4.411   4.466   4.398   4.106   4.041   4.029   4.167   4.187   4.188   4.337   4.215   4.298   4.219   4.338   4.493   4.541   4.556   4.531   4.381   4.517   4.513   4.423   4.412   4.277   4.248
   175.00    3.844   3.933   4.041   4.038   4.028   4.200   4.142   4.402   4.352   4.297   4.297   4.423   4.418   4.473   4.359   4.389   4.389   4.401   4.374   4.262   4.222   4.164   4.256   4.559   4.503   4.507   4.409   4.373   4.491   4.486   4.208   4.081   4.044   3.972   4.139   4.154   4.228   4.341   4.225   4.189   4.130   4.116   4.279   4.459   4.507   4.446   4.301   4.319   4.316   4.357   4.354   4.342   4.305
   170.00    3.965   3.877   4.014   3.870   3.897   3.998   4.179   4.224   4.183   4.221   4.348   4.366   4.460   4.392   4.368   4.249   4.399   4.344   4.312   4.309   4.397   4.329   4.388   4.408   4.500   4.469   4.422   4.391   4.437   4.226   4.227   4.131   4.149   4.175   4.200   4.158   4.301   4.404   4.315   4.124   4.187   4.121   4.212   4.299   4.318   4.236   4.357   4.123   4.309   4.329   4.354   4.379   4.344
   165.00    3.890   3.932   3.925   3.803   3.813   3.933   3.977   3.999   3.982   4.219   4.150   4.333   4.475   4.308   4.354   4.387   4.399   4.265   4.210   4.368   4.469   4.366   4.429   4.447   4.271   4.298   4.282   4.238   4.336   4.193   4.160   4.223   4.245   4.185   4.195   4.190   4.272   4.331   4.313   4.115   4.193   4.220   4.069   4.228   4.176   4.218   4.211   4.249   4.186   4.193   4.329   4.354   4.326
   160.00    3.919   3.909   3.891   3.789   3.800   3.849   3.933   3.867   3.829   3.964   4.067   4.073   4.239   4.314   4.380   4.365   4.313   4.201   4.183   4.346   4.313   4.319   4.363   4.354   4.294   4.219   4.258   4.250   4.218   4.247   4.277   4.371   4.325   4.280   4.303   4.383   4.300   4.269   4.306   4.217   4.202   4.215   4.085   4.192   4.232   4.170   4.126   4.129   4.067   4.062   4.157   4.161   4.091
   155.00    3.939   4.020   3.869   3.838   3.770   3.885   3.964   3.804   3.892   4.036   3.935   4.078   4.193   4.292   4.263   4.322   4.262   4.184   4.117   4.273   4.394   4.401   4.400   4.243   4.353   4.304   4.370   4.305   4.268   4.276   4.267   4.257   4.324   4.229   4.385   4.373   4.324   4.252   4.256   4.349   4.317   4.185   4.183   4.228   4.293   4.231   4.099   4.070   3.969   3.978   4.003   3.913   3.890
   150.00    3.838   3.901   3.878   3.921   3.866   3.918   3.958   3.946   3.952   4.105   4.044   4.035   4.207   4.289   4.326   4.179   4.140   4.271   4.160   4.094   4.132   4.268   4.284   4.419   4.217   4.135   4.147   4.163   4.158   4.210   4.232   4.286   4.314   4.354   4.248   4.312   4.188   4.372   4.303   4.325   4.304   4.207   4.238   4.211   4.128   4.111   4.066   4.090   3.980   3.972   3.903   3.857   4.009
   145.00    3.880   3.909   4.003   3.882   3.789   3.837   4.012   3.929   3.925   3.993   4.119   4.128   4.251   4.314   4.277   4.136   4.104   4.248   4.132   4.021   3.926   3.975   4.174   4.243   4.242   4.133   4.236   4.061   4.068   4.082   4.099   4.293   4.337   4.286   4.260   4.067   4.275   4.219   4.202   4.319   4.347   4.250   4.283   4.387   4.269   4.116   3.975   3.925   3.965   4.080   3.988   3.997   3.962
   140.00    3.989   4.159   4.122   3.902   3.892   3.949   3.958   4.035   4.103   3.938   4.012   4.142   4.150   4.153   4.156   4.049   4.136   4.173   4.096   3.912   3.948   3.975   4.088   4.240   4.194   4.133   4.176   4.053   3.946   4.198   4.075   4.150   4.120   4.088   4.030   4.080   4.147   4.268   4.277   4.390   4.335   4.274   4.308   4.374   4.350   4.148   3.964   3.900   4.072   4.071   4.118   4.016   3.976
   135.00    4.065   4.185   4.085   4.091   4.006   3.921   3.958   4.009   4.042   4.101   3.988   4.110   4.139   4.181   4.161   4.162   4.059   4.153   4.098   3.959   3.885   3.907   4.062   4.211   4.159   4.024   4.122   4.029   3.837   3.969   4.074   4.262   4.182   4.125   4.127   4.244   4.269   4.300   4.453   4.318   4.169   4.268   4.335   4.341   4.238   4.225   4.138   4.004   4.025   4.130   4.184   4.094   3.994
   130.00    4.107   4.053   4.036   4.173   4.159   3.981   3.957   4.122   4.109   4.011   4.011   4.149   4.160   4.138   4.036   4.029   4.081   4.233   4.214   4.061   4.028   3.927   3.944   4.058   4.086   4.046   4.030   3.989   3.863   3.933   3.952   4.125   4.177   4.095   4.136   4.147   4.238   4.159   4.339   4.304   4.253   4.303   4.370   4.243   4.183   4.130   4.070   4.125   4.031   4.019   3.981   3.940   3.873
   125.00    4.129   4.029   4.059   4.111   4.050   4.003   4.017   4.099   4.091   4.005   3.946   4.051   4.115   4.105   4.123   4.193   4.164   4.138   4.101   4.113   4.026   3.910   3.856   4.008   4.003   3.880   3.845   3.889   3.802   3.875   3.903   3.989   4.166   4.081   4.112   4.088   4.134   4.249   4.147   4.120   4.193   4.251   4.058   3.986   4.085   4.112   4.089   4.096   4.063   4.088   3.927   3.805   3.719
   120.00    4.007   4.087   4.136   4.073   4.037   3.999   3.953   4.010   4.073   4.038   4.029   4.200   4.127   4.023   4.169   4.085   3.999   4.130   4.214   4.199   4.162   4.115   3.997   3.931   3.787   3.788   3.814   3.745   3.687   3.857   3.867   3.850   3.914   4.012   4.076   4.190   4.180   4.118   4.109   4.073   4.133   4.074   4.095   4.152   4.053   4.162   3.934   3.959   4.084   4.029   3.866   3.812   3.724
   115.00    3.948   3.943   4.020   3.944   3.928   4.006   3.974   4.116   4.074   4.058   4.052   4.171   4.141   4.102   4.154   4.007   4.152   4.183   4.209   4.313   4.146   4.161   3.923   3.789   3.839   3.883   3.837   3.807   3.795   3.889   3.870   3.880   3.889   3.959   3.979   4.066   4.118   4.057   4.140   4.032   4.116   4.126   3.957   4.059   4.028   3.935   3.862   3.980   4.026   3.950   3.875   3.692   3.753
   110.00    3.960   3.862   3.868   3.857   3.827   3.912   4.004   4.156   4.126   4.077   4.096   4.143   4.148   4.203   4.193   4.099   4.116   4.135   4.140   4.205   4.104   4.044   3.899   3.929   3.836   3.854   3.813   3.847   3.815   3.905   3.856   3.834   3.831   3.949   3.901   3.854   4.029   4.150   4.157   4.116   3.975   4.093   3.918   3.841   3.919   3.949   3.903   3.823   3.935   3.976   3.862   3.729   3.733
   105.00    3.963   3.932   3.827   3.868   3.953   3.854   4.071   3.995   4.036   3.972   4.197   4.096   4.187   4.300   4.318   4.221   4.086   4.130   3.989   4.038   4.148   3.969   3.910   3.975   3.998   3.933   3.818   3.804   3.877   3.974   4.020   3.775   3.885   3.947   3.910   3.819   3.885   4.030   4.256   4.209   4.172   3.974   3.822   3.805   3.854   3.822   3.806   3.820   3.840   3.901   3.884   3.817   3.757
   100.00    3.800   3.814   3.876   3.866   3.967   3.974   3.967   3.907   3.969   4.039   4.150   4.165   4.120   4.232   4.147   4.088   4.055   4.063   3.935   4.030   4.065   4.039   3.899   3.867   3.989   4.030   3.840   3.843   3.821   3.925   3.815   3.801   3.886   3.825   4.063   4.054   4.003   4.098   4.206   4.191   4.163   4.040   3.912   3.801   3.705   3.654   3.735   3.851   3.780   3.850   3.851   3.670   3.741
    95.00    3.816   3.791   3.706   3.747   3.779   3.969   3.999   3.955   3.915   3.967   4.000   4.055   4.175   4.179   4.247   4.120   4.077   4.026   3.962   3.984   3.939   3.990   3.850   3.880   3.779   3.945   3.854   3.733   3.806   3.834   3.762   3.772   3.963   3.926   3.997   4.011   4.035   4.131   4.004   4.158   4.144   3.988   3.866   3.707   3.684   3.564   3.597   3.682   3.645   3.677   3.750   3.655   3.639
    90.00    3.758   3.823   3.771   3.837   3.838   3.877   3.967   4.065   3.941   3.922   3.882   3.925   4.030   4.039   4.000   4.012   4.017   4.039   4.001   3.876   3.777   3.790   3.915   3.784   3.792   3.880   3.974   3.833   3.894   3.759   3.613   3.769   3.808   3.871   4.018   4.079   4.041   4.090   4.031   4.066   4.177   3.949   3.843   3.716   3.682   3.561   3.541   3.635   3.678   3.598   3.611   3.589   3.610
    85.00    3.866   3.874   3.917   3.997   3.802   3.912   4.003   4.041   4.011   3.744   3.768   3.859   3.804   3.849   3.890   3.866   3.915   3.926   3.937   3.773   3.826   3.722   3.772   3.788   3.924   3.899   3.831   3.746   3.838   3.861   3.691   3.735   3.845   3.945   4.006   4.105   4.014   4.001   4.091   4.017   4.050   3.878   3.759   3.741   3.751   3.646   3.565   3.498   3.622   3.488   3.458   3.478   3.478
    80.00    3.864   3.931   3.991   3.941   3.803   3.895   3.941   4.069   4.068   3.886   3.721   3.819   3.860   3.817   3.804   3.762   3.938   3.900   3.896   3.746   3.811   3.685   3.802   3.791   3.838   4.025   3.990   3.890   3.851   3.835   3.854   3.743   3.915   4.074   4.004   4.037   4.143   4.063   4.021   4.009   4.001   3.855   3.786   3.815   3.602   3.635   3.540   3.457   3.458   3.363   3.436   3.422   3.489
    75.00    3.796   3.825   3.871   3.793   3.725   3.816   3.865   4.044   3.982   3.997   3.870   3.793   3.701   3.695   3.696   3.797   3.906   3.928   3.950   3.890   3.804   3.827   3.844   3.859   3.888   3.934   3.933   3.843   3.819   3.960   3.971   3.979   4.026   4.060   4.077   4.074   4.033   3.897   3.928   3.984   3.863   3.791   3.684   3.815   3.798   3.648   3.587   3.485   3.431   3.406   3.382   3.486   3.439
    70.00    3.585   3.721   3.722   3.649   3.731   3.890   4.003   3.886   3.880   3.906   3.900   3.854   3.633   3.632   3.610   3.772   3.905   3.946   3.947   3.931   3.908   3.936   3.978   3.937   3.900   3.870   3.901   3.827   3.715   3.812   3.911   3.973   3.926   4.026   4.027   3.924   3.963   3.787   3.842   3.942   3.825   3.809   3.723   3.713   3.831   3.780   3.548   3.500   3.457   3.534   3.498   3.601   3.562
    65.00    3.622   3.619   3.644   3.880   3.804   3.791   3.972   3.904   3.930   3.866   3.809   3.814   3.609   3.583   3.469   3.564   3.715   3.925   3.967   4.106   4.035   3.910   3.913   3.917   3.797   3.808   3.806   3.820   3.738   3.621   3.747   3.792   3.987   3.900   4.032   3.832   3.869   3.751   3.711   3.855   3.758   3.617   3.659   3.723   3.760   3.796   3.656   3.537   3.444   3.506   3.543   3.634   3.606
    60.00    3.674   3.628   3.617   3.783   3.869   3.861   3.993   3.919   3.943   3.969   3.836   3.704   3.636   3.508   3.552   3.678   3.683   3.739   3.922   4.109   4.007   3.897   3.872   3.926   3.917   3.893   3.845   3.805   3.791   3.707   3.776   3.963   3.940   3.924   3.863   3.776   3.725   3.734   3.722   3.605   3.608   3.615   3.665   3.740   3.550   3.604   3.572   3.482   3.456   3.584   3.638   3.630   3.743
    55.00    3.698   3.580   3.604   3.798   3.847   3.865   3.848   3.857   3.877   3.889   3.843   3.703   3.743   3.589   3.660   3.659   3.706   3.695   3.926   4.060   3.990   3.787   3.871   3.883   3.899   3.934   3.863   3.805   3.799   3.793   3.824   3.767   3.933   3.967   3.812   3.742   3.597   3.660   3.619   3.558   3.598   3.669   3.619   3.665   3.470   3.390   3.460   3.313   3.539   3.595   3.736   3.877   3.911
    50.00    3.844   3.705   3.808   3.783   3.771   3.698   3.822   3.735   3.726   3.788   3.784   3.752   3.765   3.786   3.672   3.618   3.625   3.669   3.849   4.035   3.930   3.822   3.863   3.800   3.794   3.868   3.947   3.826   3.863   3.809   3.803   3.846   3.840   3.816   3.820   3.808   3.628   3.609   3.658   3.522   3.509   3.624   3.635   3.525   3.534   3.453   3.341   3.388   3.515   3.646   3.656   3.802   3.953
    45.00    3.782   3.733   3.775   3.760   3.667   3.676   3.641   3.742   3.713   3.757   3.859   3.776   3.796   3.842   3.936   3.795   3.690   3.756   3.907   4.000   3.925   3.758   3.760   3.712   3.845   3.863   3.792   3.902   3.860   3.813   3.931   3.768   3.859   3.872   3.766   3.705   3.572   3.523   3.639   3.624   3.550   3.523   3.666   3.704   3.592   3.426   3.399   3.414   3.448   3.654   3.766   3.740   3.806
    40.00    3.897   3.833   3.583   3.692   3.673   3.720   3.579   3.682   3.592   3.645   3.649   3.695   3.820   3.849   3.950   3.732   3.680   3.705   3.904   3.845   3.863   3.759   3.728   3.768   3.881   3.791   3.846   3.964   3.971   3.950   3.916   3.824   3.786   3.838   3.793   3.661   3.537   3.490   3.526   3.665   3.500   3.373   3.609   3.632   3.595   3.553   3.405   3.479   3.587   3.661   3.712   3.695   3.805
    35.00    3.961   3.894   3.652   3.673   3.535   3.523   3.655   3.740   3.669   3.759   3.615   3.693   3.858   3.847   3.814   3.720   3.714   3.848   3.872   3.891   3.767   3.809   3.817   3.721   3.810   3.915   3.896   3.905   3.956   3.977   3.895   3.820   3.755   3.644   3.797   3.623   3.421   3.593   3.591   3.641   3.603   3.574   3.537   3.636   3.620   3.592   3.604   3.576   3.779   3.660   3.698   3.817   3.755
    30.00    3.859   3.878   3.712   3.780   3.683   3.632   3.683   3.716   3.609   3.703   3.586   3.620   3.783   3.739   3.726   3.712   3.811   3.780   3.844   3.878   3.816   3.880   3.753   3.740   3.808   3.706   3.861   3.941   3.788   3.844   3.786   3.741   3.555   3.598   3.528   3.431   3.405   3.462   3.478   3.602   3.635   3.568   3.584   3.630   3.682   3.766   3.738   3.668   3.817   3.780   3.739   3.789   3.722
    25.00    3.907   3.939   3.847   3.754   3.628   3.613   3.767   3.712   3.790   3.774   3.631   3.550   3.677   3.744   3.822   3.892   3.813   3.870   3.835   3.847   3.819   3.793   3.770   3.710   3.781   3.804   3.898   3.801   3.755   3.828   3.801   3.788   3.502   3.363   3.403   3.387   3.315   3.330   3.444   3.644   3.621   3.593   3.627   3.530   3.644   3.685   3.719   3.726   3.749   3.718   3.786   3.682   3.774
    20.00    3.943   3.953   3.935   3.938   3.760   3.708   3.643   3.735   3.710   3.831   3.772   3.567   3.736   3.752   3.778   3.950   3.927   4.016   3.863   3.822   3.784   3.797   3.789   3.752   3.738   3.975   3.939   3.686   3.640   3.672   3.699   3.625   3.447   3.311   3.333   3.367   3.273   3.367   3.464   3.544   3.673   3.627   3.565   3.613   3.649   3.727   3.824   3.671   3.839   3.791   3.786   3.804   3.662
    15.00    3.986   3.958   3.924   3.886   3.889   3.785   3.717   3.670   3.747   3.758   3.838   3.867   3.765   3.903   3.874   4.022   4.076   4.050   3.966   3.844   3.864   3.996   3.817   3.870   3.842   3.899   3.872   3.715   3.640   3.732   3.636   3.590   3.452   3.408   3.325   3.399   3.290   3.364   3.545   3.559   3.632   3.704   3.694   3.679   3.717   3.613   3.703   3.736   3.747   3.795   3.679   3.764   3.717
    10.00    4.037   3.887   3.947   4.097   3.931   3.680   3.688   3.832   3.888   3.857   3.949   3.805   3.771   3.809   3.853   3.854   4.049   4.051   3.989   4.144   3.997   3.991   3.909   3.932   3.952   3.890   3.928   3.898   3.752   3.683   3.586   3.424   3.430   3.506   3.447   3.409   3.542   3.492   3.569   3.644   3.748   3.802   3.807   3.788   3.791   3.745   3.815   3.698   3.681   3.701   3.625   3.711   3.822

   Height   Standard deviation at grid points for the v component:
   270.00    3.233   3.233   3.233   3.233   3.233   3.233   3.233   3.233   3.233   3.233   3.233   3.233   3.233   3.233   3.233   3.233   3.233   3.233   3.233   3.233   3.233   3.233   3.233   3.233   3.233   3.233   3.233   3.233   3.233   3.233   3.233   3.233   3.233   3.233   3.233   3.233   3.233   3.233   3.233   3.233   3.233   3.233   3.233   3.233   3.233   3.233   3.233   3.233   3.233   3.233   3.233   3.233   3.233
   265.00    3.233   3.233   3.233   3.233   3.233   3.233   3.233   3.233   3.233   3.233   3.233   3.233   3.233   3.233   3.233   3.233   3.233   3.233   3.233   3.233   3.233   3.233   3.233   3.233   3.233   3.233   3.233   3.233   3.233   3.233   3.233   3.233   3.233   3.233   3.233   3.233   3.233   3.233   3.233   3.233   3.233   3.233   3.233   3.233   3.233   3.233   3.233   3.233   3.233   3.233   3.233   3.233   3.233
   260.00    3.233   3.233   3.233   3.233   3.233   3.233   3.233   3.233   3.233   3.233   3.233   3.233   3.233   3.233   3.233   3.233   3.233   3.233   3.233   3.233   3.233   3.233   3.233   3.233   3.233   3.233   3.233   3.233   3.233   3.233   3.233   3.233   3.233   3.233   3.233   3.233   3.233   3.233   3.233   3.233   3.233   3.233   3.233   3.233   3.233   3.233   3.233   3.233   3.233   3.233   3.233   3.233   3.233
   255.00    3.233   3.233   3.233   3.233   3.233   3.233   3.233   3.233   3.233   3.233   3.233   3.233   3.233   3.233   3.233   3.233   3.233   3.233   3.233   3.233   3.233   3.233   3.233   3.233   3.233   3.233   3.233   3.233   3.233   3.233   3.233   3.233   3.233   3.233   3.233   3.233   3.233   3.233   3.233   3.233   3.233   3.233   3.233   3.233   3.233   3.233   3.233   3.233   3.233   3.233   3.233   3.233   3.233
   250.00    3.233   3.233   3.233   3.233   3.233   3.233   3.233   3.233   3.233   3.233   3.233   3.233   3.233   3.233   3.233   3.233   3.233   3.233   3.233   3.233   3.233   3.233   3.233   3.233   3.233   3.233   3.233   3.233   3.233   3.233   3.233   3.233   3.233   3.233   3.233   3.233   3.233   3.233   3.233   3.233   3.233   3.233   3.233   3.233   3.233   3.233   3.233   3.233   3.233   3.233   3.233   3.233   3.233
   245.00    3.233   3.233   3.233   3.233   3.233   3.233   3.233   3.233   3.233   3.233   3.233   3.233   3.233   3.233   3.233   3.233   3.233   3.233   3.233   3.233   3.233   3.233   3.233   3.233   3.233   3.233   3.233   3.233   3.233   3.233   3.233   3.233   3.233   3.233   3.233   3.233   3.233   3.233   3.233   3.233   3.233   3.233   3.233   3.233   3.233   3.233   3.233   3.233   3.233   3.233   3.233   3.233   3.233
   240.00    3.233   3.233   3.233   3.233   3.233   3.233   3.233   3.233   3.233   3.233   3.233   3.233   3.233   3.233   3.233   3.233   3.233   3.233   3.233   3.233   3.233   3.233   3.233   3.233   3.233   3.233   3.233   3.233   3.233   3.233   3.233   3.233   3.233   3.233   3.233   3.233   3.233   3.233   3.233   3.233   3.233   3.233   3.233   3.233   3.233   3.233   3.233   3.233   3.233   3.233   3.233   3.233   3.233
   235.00    3.233   3.233   3.233   3.233   3.233   3.233   3.233   3.233   3.233   3.233   3.233   3.233   3.233   3.233   3.233   3.233   3.233   3.233   3.233   3.233   3.233   3.233   3.233   3.233   3.233   3.233   3.233   3.233   3.233   3.233   3.233   3.233   3.233   3.233   3.233   3.233   3.233   3.233   3.233   3.233   3.233   3.233   3.233   3.233   3.233   3.233   3.233   3.233   3.233   3.233   3.233   3.233   3.233
   230.00    3.233   3.233   3.233   3.233   3.233   3.233   3.233   3.233   3.233   3.233   3.233   3.233   3.233   3.233   3.233   3.233   3.233   3.233   3.233   3.233   3.233   3.233   3.233   3.233   3.233   3.233   3.233   3.233   3.233   3.233   3.233   3.233   3.233   3.233   3.233   3.233   3.233   3.233   3.233   3.233   3.233   3.233   3.233   3.233   3.233   3.233   3.233   3.233   3.233   3.233   3.233   3.233   3.233
   225.00    3.233   3.233   3.233   3.233   3.233   3.233   3.233   3.233   3.233   3.233   3.233   3.233   3.233   3.233   3.233   3.233   3.233   3.233   3.233   3.233   3.233   3.233   3.233   3.233   3.233   3.233   3.233   3.233   3.233   3.233   3.233   3.233   3.233   3.233   3.233   3.233   3.233   3.233   3.233   3.233   3.233   3.233   3.233   3.233   3.233   3.233   3.233   3.233   3.233   3.233   3.233   3.233   3.233
   220.00    3.233   3.233   3.233   3.233   3.233   3.233   3.233   3.233   3.233   3.233   3.233   3.233   3.233   3.233   3.233   3.233   3.233   3.233   3.233   3.233   3.233   3.233   3.233   3.233   3.233   3.233   3.233   3.233   3.233   3.233   3.233   3.233   3.233   3.233   3.233   3.233   3.233   3.233   3.233   3.233   3.233   3.233   3.233   3.233   3.233   3.233   3.233   3.233   3.233   3.233   3.233   3.233   3.233
   215.00    3.233   3.233   3.233   3.233   3.233   3.233   3.233   3.233   3.233   3.233   3.233   3.233   3.233   3.233   3.233   3.233   3.233   3.233   3.233   3.233   3.233   3.233   3.233   3.233   3.233   3.233   3.233   3.233   3.233   3.233   3.233   3.233   3.233   3.233   3.233   3.233   3.233   3.233   3.233   3.233   3.233   3.233   3.233   3.233   3.233   3.233   3.233   3.233   3.233   3.233   3.233   3.233   3.233
   210.00    3.233   3.233   3.233   3.233   3.233   3.233   3.233   3.233   3.233   3.233   3.233   3.233   3.233   3.233   3.233   3.233   3.233   3.233   3.233   3.233   3.233   3.233   3.233   3.233   3.233   3.233   3.233   3.233   3.233   3.233   3.233   3.233   3.233   3.233   3.233   3.233   3.233   3.233   3.233   3.233   3.233   3.233   3.233   3.233   3.233   3.233   3.233   3.233   3.233   3.233   3.233   3.233   3.233
   205.00    3.233   3.233   3.233   3.233   3.233   3.233   3.233   3.233   3.233   3.233   3.233   3.233   3.233   3.233   3.233   3.233   3.233   3.233   3.233   3.233   3.233   3.233   3.233   3.233   3.233   3.233   3.233   3.233   3.233   3.233   3.233   3.233   3.233   3.233   3.233   3.233   3.233   3.233   3.233   3.233   3.233   3.233   3.233   3.233   3.233   3.233   3.233   3.233   3.233   3.233   3.233   3.233   3.233
   200.00    3.233   3.233   3.233   3.233   3.233   3.233   3.233   3.233   3.233   3.233   3.233   3.233   3.233   3.233   3.233   3.233   3.233   3.233   3.233   3.233   3.233   3.233   3.233   3.233   3.233   3.233   3.233   3.233   3.233   3.233   3.233   3.233   3.233   3.233   3.233   3.233   3.233   3.233   3.233   3.233   3.233   3.233   3.233   3.233   3.233   3.233   3.233   3.233   3.233   3.233   3.233   3.233   3.233
   195.00    3.233   3.233   3.233   3.233   3.233   3.233   3.233   3.233   3.233   3.233   3.233   3.233   3.233   3.233   3.233   3.233   3.233   3.233   3.233   3.233   3.233   3.233   3.233   3.233   3.233   3.233   3.233   3.233   3.233   3.233   3.233   3.233   3.233   3.233   3.233   3.233   3.233   3.233   3.233   3.233   3.233   3.233   3.233   3.233   3.233   3.233   3.233   3.233   3.233   3.233   3.233   3.233   3.233
   190.00    3.233   3.233   3.233   3.233   3.233   3.233   3.233   3.233   3.233   3.233   3.233   3.233   3.233   3.233   3.233   3.233   3.233   3.233   3.233   3.233   3.233   3.233   3.233   3.233   3.233   3.233   3.233   3.233   3.233   3.233   3.233   3.233   3.233   3.233   3.233   3.233   3.233   3.233   3.233   3.233   3.233   3.233   3.233   3.233   3.233   3.233   3.233   3.233   3.233   3.233   3.233   3.233   3.233
   185.00    3.233   3.233   3.233   3.233   3.233   3.233   3.233   3.233   3.233   3.233   3.233   3.233   3.233   3.233   3.233   3.233   3.233   3.233   3.233   3.233   3.233   3.233   3.233   3.233   3.233   3.233   3.233   3.233   3.233   3.233   3.233   3.233   3.233   3.233   3.233   3.233   3.233   3.233   3.233   3.233   3.233   3.233   3.233   3.233   3.233   3.233   3.233   3.233   3.233   3.233   3.233   3.233   3.233
   180.00    3.233   3.233   3.233   3.233   3.233   3.233   3.233   3.233   3.233   3.233   3.233   3.233   3.233   3.233   3.233   3.233   3.233   3.233   3.233   3.233   3.233   3.233   3.233   3.233   3.233   3.233   3.233   3.233   3.233   3.233   3.233   3.233   3.233   3.233   3.233   3.233   3.233   3.233   3.233   3.233   3.233   3.233   3.233   3.233   3.233   3.233   3.233   3.233   3.233   3.233   3.233   3.233   3.233
   175.00    3.233   3.233   3.233   3.233   3.233   3.233   3.233   3.233   3.233   3.233   3.233   3.233   3.233   3.233   3.233   3.233   3.233   3.233   3.233   3.233   3.233   3.233   3.233   3.233   3.233   3.233   3.233   3.233   3.233   3.233   3.233   3.233   3.233   3.233   3.233   3.233   3.233   3.233   3.233   3.233   3.233   3.233   3.233   3.233   3.233   3.233   3.233   3.233   3.233   3.233   3.233   3.233   3.233
   170.00    3.233   3.233   3.233   3.233   3.233   3.233   3.233   3.233   3.233   3.233   3.233   3.233   3.233   3.233   3.233   3.233   3.233   3.233   3.233   3.233   3.233   3.233   3.233   3.233   3.233   3.233   3.233   3.233   3.233   3.233   3.233   3.233   3.233   3.233   3.233   3.233   3.233   3.233   3.233   3.233   3.233   3.233   3.233   3.233   3.233   3.233   3.233   3.233   3.233   3.233   3.233   3.233   3.233
   165.00    3.233   3.233   3.233   3.233   3.233   3.233   3.233   3.233   3.233   3.233   3.233   3.233   3.233   3.233   3.233   3.233   3.233   3.233   3.233   3.233   3.233   3.233   3.233   3.233   3.233   3.233   3.233   3.233   3.233   3.233   3.233   3.233   3.233   3.233   3.233   3.233   3.233   3.233   3.233   3.233   3.233   3.233   3.233   3.233   3.233   3.233   3.233   3.233   3.233   3.233   3.233   3.233   3.233
   160.00    3.233   3.233   3.233   3.233   3.233   3.233   3.233   3.233   3.233   3.233   3.233   3.233   3.233   3.233   3.233   3.233   3.233   3.233   3.233   3.233   3.233   3.233   3.233   3.233   3.233   3.233   3.233   3.233   3.233   3.233   3.233   3.233   3.233   3.233   3.233   3.233   3.233   3.233   3.233   3.233   3.233   3.233   3.233   3.233   3.233   3.233   3.233   3.233   3.233   3.233   3.233   3.233   3.233
   155.00    3.233   3.233   3.233   3.233   3.233   3.233   3.233   3.233   3.233   3.233   3.233   3.233   3.233   3.233   3.233   3.233   3.233   3.233   3.233   3.233   3.233   3.233   3.233   3.233   3.233   3.233   3.233   3.233   3.233   3.233   3.233   3.233   3.233   3.233   3.233   3.233   3.233   3.233   3.233   3.233   3.233   3.233   3.233   3.233   3.233   3.233   3.233   3.233   3.233   3.233   3.233   3.233   3.233
   150.00    3.233   3.233   3.233   3.233   3.233   3.233   3.233   3.233   3.233   3.233   3.233   3.233   3.233   3.233   3.233   3.233   3.233   3.233   3.233   3.233   3.233   3.233   3.233   3.233   3.233   3.233   3.233   3.233   3.233   3.233   3.233   3.233   3.233   3.233   3.233   3.233   3.233   3.233   3.233   3.233   3.233   3.233   3.233   3.233   3.233   3.233   3.233   3.233   3.233   3.233   3.233   3.233   3.233
   145.00    3.233   3.233   3.233   3.233   3.233   3.233   3.233   3.233   3.233   3.233   3.233   3.233   3.233   3.233   3.233   3.233   3.233   3.233   3.233   3.233   3.233   3.233   3.233   3.233   3.233   3.233   3.233   3.233   3.233   3.233   3.233   3.233   3.233   3.233   3.233   3.233   3.233   3.233   3.233   3.233   3.233   3.233   3.233   3.233   3.233   3.233   3.233   3.233   3.233   3.233   3.233   3.233   3.233
   140.00    3.233   3.233   3.233   3.233   3.233   3.233   3.233   3.233   3.233   3.233   3.233   3.233   3.233   3.233   3.233   3.233   3.233   3.233   3.233   3.233   3.233   3.233   3.233   3.233   3.233   3.233   3.233   3.233   3.233   3.233   3.233   3.233   3.233   3.233   3.233   3.233   3.233   3.233   3.233   3.233   3.233   3.233   3.233   3.233   3.233   3.233   3.233   3.233   3.233   3.233   3.233   3.233   3.233
   135.00    3.233   3.233   3.233   3.233   3.233   3.233   3.233   3.233   3.233   3.233   3.233   3.233   3.233   3.233   3.233   3.233   3.233   3.233   3.233   3.233   3.233   3.233   3.233   3.233   3.233   3.233   3.233   3.233   3.233   3.233   3.233   3.233   3.233   3.233   3.233   3.233   3.233   3.233   3.233   3.233   3.233   3.233   3.233   3.233   3.233   3.233   3.233   3.233   3.233   3.233   3.233   3.233   3.233
   130.00    3.233   3.233   3.233   3.233   3.233   3.233   3.233   3.233   3.233   3.233   3.233   3.233   3.233   3.233   3.233   3.233   3.233   3.233   3.233   3.233   3.233   3.233   3.233   3.233   3.233   3.233   3.233   3.233   3.233   3.233   3.233   3.233   3.233   3.233   3.233   3.233   3.233   3.233   3.233   3.233   3.233   3.233   3.233   3.233   3.233   3.233   3.233   3.233   3.233   3.233   3.233   3.233   3.233
   125.00    3.233   3.233   3.233   3.233   3.233   3.233   3.233   3.233   3.233   3.233   3.233   3.233   3.233   3.233   3.233   3.233   3.233   3.233   3.233   3.233   3.233   3.233   3.233   3.233   3.233   3.233   3.233   3.233   3.233   3.233   3.233   3.233   3.233   3.233   3.233   3.233   3.233   3.233   3.233   3.233   3.233   3.233   3.233   3.233   3.233   3.233   3.233   3.233   3.233   3.233   3.233   3.233   3.233
   120.00    3.233   3.233   3.233   3.233   3.233   3.233   3.233   3.233   3.233   3.233   3.233   3.233   3.233   3.233   3.233   3.233   3.233   3.233   3.233   3.233   3.233   3.233   3.233   3.233   3.233   3.233   3.233   3.233   3.233   3.233   3.233   3.233   3.233   3.233   3.233   3.233   3.233   3.233   3.233   3.233   3.233   3.233   3.233   3.233   3.233   3.233   3.233   3.233   3.233   3.233   3.233   3.233   3.233
   115.00    3.233   3.233   3.233   3.233   3.233   3.233   3.233   3.233   3.233   3.233   3.233   3.233   3.233   3.233   3.233   3.233   3.233   3.233   3.233   3.233   3.233   3.233   3.233   3.233   3.233   3.233   3.233   3.233   3.233   3.233   3.233   3.233   3.233   3.233   3.233   3.233   3.233   3.233   3.233   3.233   3.233   3.233   3.233   3.233   3.233   3.233   3.233   3.233   3.233   3.233   3.233   3.233   3.233
   110.00    3.233   3.233   3.233   3.233   3.233   3.233   3.233   3.233   3.233   3.233   3.233   3.233   3.233   3.233   3.233   3.233   3.233   3.233   3.233   3.233   3.233   3.233   3.233   3.233   3.233   3.233   3.233   3.233   3.233   3.233   3.233   3.233   3.233   3.233   3.233   3.233   3.233   3.233   3.233   3.233   3.233   3.233   3.233   3.233   3.233   3.233   3.233   3.233   3.233   3.233   3.233   3.233   3.233
   105.00    3.233   3.233   3.233   3.233   3.233   3.233   3.233   3.233   3.233   3.233   3.233   3.233   3.233   3.233   3.233   3.233   3.233   3.233   3.233   3.233   3.233   3.233   3.233   3.233   3.233   3.233   3.233   3.233   3.233   3.233   3.233   3.233   3.233   3.233   3.233   3.233   3.233   3.233   3.233   3.233   3.233   3.233   3.233   3.233   3.233   3.233   3.233   3.233   3.233   3.233   3.233   3.233   3.233
   100.00    3.233   3.233   3.233   3.233   3.233   3.233   3.233   3.233   3.233   3.233   3.233   3.233   3.233   3.233   3.233   3.233   3.233   3.233   3.233   3.233   3.233   3.233   3.233   3.233   3.233   3.233   3.233   3.233   3.233   3.233   3.233   3.233   3.233   3.233   3.233   3.233   3.233   3.233   3.233   3.233   3.233   3.233   3.233   3.233   3.233   3.233   3.233   3.233   3.233   3.233   3.233   3.233   3.233
    95.00    3.233   3.233   3.233   3.233   3.233   3.233   3.233   3.233   3.233   3.233   3.233   3.233   3.233   3.233   3.233   3.233   3.233   3.233   3.233   3.233   3.233   3.233   3.233   3.233   3.233   3.233   3.233   3.233   3.233   3.233   3.233   3.233   3.233   3.233   3.233   3.233   3.233   3.233   3.233   3.233   3.233   3.233   3.233   3.233   3.233   3.233   3.233   3.233   3.233   3.233   3.233   3.233   3.233
    90.00    3.233   3.233   3.233   3.233   3.233   3.233   3.233   3.233   3.233   3.233   3.233   3.233   3.233   3.233   3.233   3.233   3.233   3.233   3.233   3.233   3.233   3.233   3.233   3.233   3.233   3.233   3.233   3.233   3.233   3.233   3.233   3.233   3.233   3.233   3.233   3.233   3.233   3.233   3.233   3.233   3.233   3.233   3.233   3.233   3.233   3.233   3.233   3.233   3.233   3.233   3.233   3.233   3.233
    85.00    3.233   3.233   3.233   3.233   3.233   3.233   3.233   3.233   3.233   3.233   3.233   3.233   3.233   3.233   3.233   3.233   3.233   3.233   3.233   3.233   3.233   3.233   3.233   3.233   3.233   3.233   3.233   3.233   3.233   3.233   3.233   3.233   3.233   3.233   3.233   3.233   3.233   3.233   3.233   3.233   3.233   3.233   3.233   3.233   3.233   3.233   3.233   3.233   3.233   3.233   3.233   3.233   3.233
    80.00    3.233   3.233   3.233   3.233   3.233   3.233   3.233   3.233   3.233   3.233   3.233   3.233   3.233   3.233   3.233   3.233   3.233   3.233   3.233   3.233   3.233   3.233   3.233   3.233   3.233   3.233   3.233   3.233   3.233   3.233   3.233   3.233   3.233   3.233   3.233   3.233   3.233   3.233   3.233   3.233   3.233   3.233   3.233   3.233   3.233   3.233   3.233   3.233   3.233   3.233   3.233   3.233   3.233
    75.00    3.233   3.233   3.233   3.233   3.233   3.233   3.233   3.233   3.233   3.233   3.233   3.233   3.233   3.233   3.233   3.233   3.233   3.233   3.233   3.233   3.233   3.233   3.233   3.233   3.233   3.233   3.233   3.233   3.233   3.233   3.233   3.233   3.233   3.233   3.233   3.233   3.233   3.233   3.233   3.233   3.233   3.233   3.233   3.233   3.233   3.233   3.233   3.233   3.233   3.233   3.233   3.233   3.233
    70.00    3.233   3.233   3.233   3.233   3.233   3.233   3.233   3.233   3.233   3.233   3.233   3.233   3.233   3.233   3.233   3.233   3.233   3.233   3.233   3.233   3.233   3.233   3.233   3.233   3.233   3.233   3.233   3.233   3.233   3.233   3.233   3.233   3.233   3.233   3.233   3.233   3.233   3.233   3.233   3.233   3.233   3.233   3.233   3.233   3.233   3.233   3.233   3.233   3.233   3.233   3.233   3.233   3.233
    65.00    3.233   3.233   3.233   3.233   3.233   3.233   3.233   3.233   3.233   3.233   3.233   3.233   3.233   3.233   3.233   3.233   3.233   3.233   3.233   3.233   3.233   3.233   3.233   3.233   3.233   3.233   3.233   3.233   3.233   3.233   3.233   3.233   3.233   3.233   3.233   3.233   3.233   3.233   3.233   3.233   3.233   3.233   3.233   3.233   3.233   3.233   3.233   3.233   3.233   3.233   3.233   3.233   3.233
    60.00    3.233   3.233   3.233   3.233   3.233   3.233   3.233   3.233   3.233   3.233   3.233   3.233   3.233   3.233   3.233   3.233   3.233   3.233   3.233   3.233   3.233   3.233   3.233   3.233   3.233   3.233   3.233   3.233   3.233   3.233   3.233   3.233   3.233   3.233   3.233   3.233   3.233   3.233   3.233   3.233   3.233   3.233   3.233   3.233   3.233   3.233   3.233   3.233   3.233   3.233   3.233   3.233   3.233
    55.00    3.233   3.233   3.233   3.233   3.233   3.233   3.233   3.233   3.233   3.233   3.233   3.233   3.233   3.233   3.233   3.233   3.233   3.233   3.233   3.233   3.233   3.233   3.233   3.233   3.233   3.233   3.233   3.233   3.233   3.233   3.233   3.233   3.233   3.233   3.233   3.233   3.233   3.233   3.233   3.233   3.233   3.233   3.233   3.233   3.233   3.233   3.233   3.233   3.233   3.233   3.233   3.233   3.233
    50.00    3.233   3.233   3.233   3.233   3.233   3.233   3.233   3.233   3.233   3.233   3.233   3.233   3.233   3.233   3.233   3.233   3.233   3.233   3.233   3.233   3.233   3.233   3.233   3.233   3.233   3.233   3.233   3.233   3.233   3.233   3.233   3.233   3.233   3.233   3.233   3.233   3.233   3.233   3.233   3.233   3.233   3.233   3.233   3.233   3.233   3.233   3.233   3.233   3.233   3.233   3.233   3.233   3.233
    45.00    3.233   3.233   3.233   3.233   3.233   3.233   3.233   3.233   3.233   3.233   3.233   3.233   3.233   3.233   3.233   3.233   3.233   3.233   3.233   3.233   3.233   3.233   3.233   3.233   3.233   3.233   3.233   3.233   3.233   3.233   3.233   3.233   3.233   3.233   3.233   3.233   3.233   3.233   3.233   3.233   3.233   3.233   3.233   3.233   3.233   3.233   3.233   3.233   3.233   3.233   3.233   3.233   3.233
    40.00    3.233   3.233   3.233   3.233   3.233   3.233   3.233   3.233   3.233   3.233   3.233   3.233   3.233   3.233   3.233   3.233   3.233   3.233   3.233   3.233   3.233   3.233   3.233   3.233   3.233   3.233   3.233   3.233   3.233   3.233   3.233   3.233   3.233   3.233   3.233   3.233   3.233   3.233   3.233   3.233   3.233   3.233   3.233   3.233   3.233   3.233   3.233   3.233   3.233   3.233   3.233   3.233   3.233
    35.00    3.233   3.233   3.233   3.233   3.233   3.233   3.233   3.233   3.233   3.233   3.233   3.233   3.233   3.233   3.233   3.233   3.233   3.233   3.233   3.233   3.233   3.233   3.233   3.233   3.233   3.233   3.233   3.233   3.233   3.233   3.233   3.233   3.233   3.233   3.233   3.233   3.233   3.233   3.233   3.233   3.233   3.233   3.233   3.233   3.233   3.233   3.233   3.233   3.233   3.233   3.233   3.233   3.233
    30.00    3.233   3.233   3.233   3.233   3.233   3.233   3.233   3.233   3.233   3.233   3.233   3.233   3.233   3.233   3.233   3.233   3.233   3.233   3.233   3.233   3.233   3.233   3.233   3.233   3.233   3.233   3.233   3.233   3.233   3.233   3.233   3.233   3.233   3.233   3.233   3.233   3.233   3.233   3.233   3.233   3.233   3.233   3.233   3.233   3.233   3.233   3.233   3.233   3.233   3.233   3.233   3.233   3.233
    25.00    3.233   3.233   3.233   3.233   3.233   3.233   3.233   3.233   3.233   3.233   3.233   3.233   3.233   3.233   3.233   3.233   3.233   3.233   3.233   3.233   3.233   3.233   3.233   3.233   3.233   3.233   3.233   3.233   3.233   3.233   3.233   3.233   3.233   3.233   3.233   3.233   3.233   3.233   3.233   3.233   3.233   3.233   3.233   3.233   3.233   3.233   3.233   3.233   3.233   3.233   3.233   3.233   3.233
    20.00    3.233   3.233   3.233   3.233   3.233   3.233   3.233   3.233   3.233   3.233   3.233   3.233   3.233   3.233   3.233   3.233   3.233   3.233   3.233   3.233   3.233   3.233   3.233   3.233   3.233   3.233   3.233   3.233   3.233   3.233   3.233   3.233   3.233   3.233   3.233   3.233   3.233   3.233   3.233   3.233   3.233   3.233   3.233   3.233   3.233   3.233   3.233   3.233   3.233   3.233   3.233   3.233   3.233
    15.00    3.233   3.233   3.233   3.233   3.233   3.233   3.233   3.233   3.233   3.233   3.233   3.233   3.233   3.233   3.233   3.233   3.233   3.233   3.233   3.233   3.233   3.233   3.233   3.233   3.233   3.233   3.233   3.233   3.233   3.233   3.233   3.233   3.233   3.233   3.233   3.233   3.233   3.233   3.233   3.233   3.233   3.233   3.233   3.233   3.233   3.233   3.233   3.233   3.233   3.233   3.233   3.233   3.233
    10.00    3.233   3.233   3.233   3.233   3.233   3.233   3.233   3.233   3.233   3.233   3.233   3.233   3.233   3.233   3.233   3.233   3.233   3.233   3.233   3.233   3.233   3.233   3.233   3.233   3.233   3.233   3.233   3.233   3.233   3.233   3.233   3.233   3.233   3.233   3.233   3.233   3.233   3.233   3.233   3.233   3.233   3.233   3.233   3.233   3.233   3.233   3.233   3.233   3.233   3.233   3.233   3.233   3.233

   Height   Standard deviation at grid points for the w component:
   270.00    1.977   1.977   1.977   1.977   1.977   1.977   1.977   1.977   1.977   1.977   1.977   1.977   1.977   1.977   1.977   1.977   1.977   1.977   1.977   1.977   1.977   1.977   1.977   1.977   1.977   1.977   1.977   1.977   1.977   1.977   1.977   1.977   1.977   1.977   1.977   1.977   1.977   1.977   1.977   1.977   1.977   1.977   1.977   1.977   1.977   1.977   1.977   1.977   1.977   1.977   1.977   1.977   1.977
   265.00    1.977   1.977   1.977   1.977   1.977   1.977   1.977   1.977   1.977   1.977   1.977   1.977   1.977   1.977   1.977   1.977   1.977   1.977   1.977   1.977   1.977   1.977   1.977   1.977   1.977   1.977   1.977   1.977   1.977   1.977   1.977   1.977   1.977   1.977   1.977   1.977   1.977   1.977   1.977   1.977   1.977   1.977   1.977   1.977   1.977   1.977   1.977   1.977   1.977   1.977   1.977   1.977   1.977
   260.00    1.977   1.977   1.977   1.977   1.977   1.977   1.977   1.977   1.977   1.977   1.977   1.977   1.977   1.977   1.977   1.977   1.977   1.977   1.977   1.977   1.977   1.977   1.977   1.977   1.977   1.977   1.977   1.977   1.977   1.977   1.977   1.977   1.977   1.977   1.977   1.977   1.977   1.977   1.977   1.977   1.977   1.977   1.977   1.977   1.977   1.977   1.977   1.977   1.977   1.977   1.977   1.977   1.977
   255.00    1.977   1.977   1.977   1.977   1.977   1.977   1.977   1.977   1.977   1.977   1.977   1.977   1.977   1.977   1.977   1.977   1.977   1.977   1.977   1.977   1.977   1.977   1.977   1.977   1.977   1.977   1.977   1.977   1.977   1.977   1.977   1.977   1.977   1.977   1.977   1.977   1.977   1.977   1.977   1.977   1.977   1.977   1.977   1.977   1.977   1.977   1.977   1.977   1.977   1.977   1.977   1.977   1.977
   250.00    1.977   1.977   1.977   1.977   1.977   1.977   1.977   1.977   1.977   1.977   1.977   1.977   1.977   1.977   1.977   1.977   1.977   1.977   1.977   1.977   1.977   1.977   1.977   1.977   1.977   1.977   1.977   1.977   1.977   1.977   1.977   1.977   1.977   1.977   1.977   1.977   1.977   1.977   1.977   1.977   1.977   1.977   1.977   1.977   1.977   1.977   1.977   1.977   1.977   1.977   1.977   1.977   1.977
   245.00    1.977   1.977   1.977   1.977   1.977   1.977   1.977   1.977   1.977   1.977   1.977   1.977   1.977   1.977   1.977   1.977   1.977   1.977   1.977   1.977   1.977   1.977   1.977   1.977   1.977   1.977   1.977   1.977   1.977   1.977   1.977   1.977   1.977   1.977   1.977   1.977   1.977   1.977   1.977   1.977   1.977   1.977   1.977   1.977   1.977   1.977   1.977   1.977   1.977   1.977   1.977   1.977   1.977
   240.00    1.977   1.977   1.977   1.977   1.977   1.977   1.977   1.977   1.977   1.977   1.977   1.977   1.977   1.977   1.977   1.977   1.977   1.977   1.977   1.977   1.977   1.977   1.977   1.977   1.977   1.977   1.977   1.977   1.977   1.977   1.977   1.977   1.977   1.977   1.977   1.977   1.977   1.977   1.977   1.977   1.977   1.977   1.977   1.977   1.977   1.977   1.977   1.977   1.977   1.977   1.977   1.977   1.977
   235.00    1.977   1.977   1.977   1.977   1.977   1.977   1.977   1.977   1.977   1.977   1.977   1.977   1.977   1.977   1.977   1.977   1.977   1.977   1.977   1.977   1.977   1.977   1.977   1.977   1.977   1.977   1.977   1.977   1.977   1.977   1.977   1.977   1.977   1.977   1.977   1.977   1.977   1.977   1.977   1.977   1.977   1.977   1.977   1.977   1.977   1.977   1.977   1.977   1.977   1.977   1.977   1.977   1.977
   230.00    1.977   1.977   1.977   1.977   1.977   1.977   1.977   1.977   1.977   1.977   1.977   1.977   1.977   1.977   1.977   1.977   1.977   1.977   1.977   1.977   1.977   1.977   1.977   1.977   1.977   1.977   1.977   1.977   1.977   1.977   1.977   1.977   1.977   1.977   1.977   1.977   1.977   1.977   1.977   1.977   1.977   1.977   1.977   1.977   1.977   1.977   1.977   1.977   1.977   1.977   1.977   1.977   1.977
   225.00    1.977   1.977   1.977   1.977   1.977   1.977   1.977   1.977   1.977   1.977   1.977   1.977   1.977   1.977   1.977   1.977   1.977   1.977   1.977   1.977   1.977   1.977   1.977   1.977   1.977   1.977   1.977   1.977   1.977   1.977   1.977   1.977   1.977   1.977   1.977   1.977   1.977   1.977   1.977   1.977   1.977   1.977   1.977   1.977   1.977   1.977   1.977   1.977   1.977   1.977   1.977   1.977   1.977
   220.00    1.977   1.977   1.977   1.977   1.977   1.977   1.977   1.977   1.977   1.977   1.977   1.977   1.977   1.977   1.977   1.977   1.977   1.977   1.977   1.977   1.977   1.977   1.977   1.977   1.977   1.977   1.977   1.977   1.977   1.977   1.977   1.977   1.977   1.977   1.977   1.977   1.977   1.977   1.977   1.977   1.977   1.977   1.977   1.977   1.977   1.977   1.977   1.977   1.977   1.977   1.977   1.977   1.977
   215.00    1.977   1.977   1.977   1.977   1.977   1.977   1.977   1.977   1.977   1.977   1.977   1.977   1.977   1.977   1.977   1.977   1.977   1.977   1.977   1.977   1.977   1.977   1.977   1.977   1.977   1.977   1.977   1.977   1.977   1.977   1.977   1.977   1.977   1.977   1.977   1.977   1.977   1.977   1.977   1.977   1.977   1.977   1.977   1.977   1.977   1.977   1.977   1.977   1.977   1.977   1.977   1.977   1.977
   210.00    1.977   1.977   1.977   1.977   1.977   1.977   1.977   1.977   1.977   1.977   1.977   1.977   1.977   1.977   1.977   1.977   1.977   1.977   1.977   1.977   1.977   1.977   1.977   1.977   1.977   1.977   1.977   1.977   1.977   1.977   1.977   1.977   1.977   1.977   1.977   1.977   1.977   1.977   1.977   1.977   1.977   1.977   1.977   1.977   1.977   1.977   1.977   1.977   1.977   1.977   1.977   1.977   1.977
   205.00    1.977   1.977   1.977   1.977   1.977   1.977   1.977   1.977   1.977   1.977   1.977   1.977   1.977   1.977   1.977   1.977   1.977   1.977   1.977   1.977   1.977   1.977   1.977   1.977   1.977   1.977   1.977   1.977   1.977   1.977   1.977   1.977   1.977   1.977   1.977   1.977   1.977   1.977   1.977   1.977   1.977   1.977   1.977   1.977   1.977   1.977   1.977   1.977   1.977   1.977   1.977   1.977   1.977
   200.00    1.977   1.977   1.977   1.977   1.977   1.977   1.977   1.977   1.977   1.977   1.977   1.977   1.977   1.977   1.977   1.977   1.977   1.977   1.977   1.977   1.977   1.977   1.977   1.977   1.977   1.977   1.977   1.977   1.977   1.977   1.977   1.977   1.977   1.977   1.977   1.977   1.977   1.977   1.977   1.977   1.977   1.977   1.977   1.977   1.977   1.977   1.977   1.977   1.977   1.977   1.977   1.977   1.977
   195.00    1.977   1.977   1.977   1.977   1.977   1.977   1.977   1.977   1.977   1.977   1.977   1.977   1.977   1.977   1.977   1.977   1.977   1.977   1.977   1.977   1.977   1.977   1.977   1.977   1.977   1.977   1.977   1.977   1.977   1.977   1.977   1.977   1.977   1.977   1.977   1.977   1.977   1.977   1.977   1.977   1.977   1.977   1.977   1.977   1.977   1.977   1.977   1.977   1.977   1.977   1.977   1.977   1.977
   190.00    1.977   1.977   1.977   1.977   1.977   1.977   1.977   1.977   1.977   1.977   1.977   1.977   1.977   1.977   1.977   1.977   1.977   1.977   1.977   1.977   1.977   1.977   1.977   1.977   1.977   1.977   1.977   1.977   1.977   1.977   1.977   1.977   1.977   1.977   1.977   1.977   1.977   1.977   1.977   1.977   1.977   1.977   1.977   1.977   1.977   1.977   1.977   1.977   1.977   1.977   1.977   1.977   1.977
   185.00    1.977   1.977   1.977   1.977   1.977   1.977   1.977   1.977   1.977   1.977   1.977   1.977   1.977   1.977   1.977   1.977   1.977   1.977   1.977   1.977   1.977   1.977   1.977   1.977   1.977   1.977   1.977   1.977   1.977   1.977   1.977   1.977   1.977   1.977   1.977   1.977   1.977   1.977   1.977   1.977   1.977   1.977   1.977   1.977   1.977   1.977   1.977   1.977   1.977   1.977   1.977   1.977   1.977
   180.00    1.977   1.977   1.977   1.977   1.977   1.977   1.977   1.977   1.977   1.977   1.977   1.977   1.977   1.977   1.977   1.977   1.977   1.977   1.977   1.977   1.977   1.977   1.977   1.977   1.977   1.977   1.977   1.977   1.977   1.977   1.977   1.977   1.977   1.977   1.977   1.977   1.977   1.977   1.977   1.977   1.977   1.977   1.977   1.977   1.977   1.977   1.977   1.977   1.977   1.977   1.977   1.977   1.977
   175.00    1.977   1.977   1.977   1.977   1.977   1.977   1.977   1.977   1.977   1.977   1.977   1.977   1.977   1.977   1.977   1.977   1.977   1.977   1.977   1.977   1.977   1.977   1.977   1.977   1.977   1.977   1.977   1.977   1.977   1.977   1.977   1.977   1.977   1.977   1.977   1.977   1.977   1.977   1.977   1.977   1.977   1.977   1.977   1.977   1.977   1.977   1.977   1.977   1.977   1.977   1.977   1.977   1.977
   170.00    1.977   1.977   1.977   1.977   1.977   1.977   1.977   1.977   1.977   1.977   1.977   1.977   1.977   1.977   1.977   1.977   1.977   1.977   1.977   1.977   1.977   1.977   1.977   1.977   1.977   1.977   1.977   1.977   1.977   1.977   1.977   1.977   1.977   1.977   1.977   1.977   1.977   1.977   1.977   1.977   1.977   1.977   1.977   1.977   1.977   1.977   1.977   1.977   1.977   1.977   1.977   1.977   1.977
   165.00    1.977   1.977   1.977   1.977   1.977   1.977   1.977   1.977   1.977   1.977   1.977   1.977   1.977   1.977   1.977   1.977   1.977   1.977   1.977   1.977   1.977   1.977   1.977   1.977   1.977   1.977   1.977   1.977   1.977   1.977   1.977   1.977   1.977   1.977   1.977   1.977   1.977   1.977   1.977   1.977   1.977   1.977   1.977   1.977   1.977   1.977   1.977   1.977   1.977   1.977   1.977   1.977   1.977
   160.00    1.977   1.977   1.977   1.977   1.977   1.977   1.977   1.977   1.977   1.977   1.977   1.977   1.977   1.977   1.977   1.977   1.977   1.977   1.977   1.977   1.977   1.977   1.977   1.977   1.977   1.977   1.977   1.977   1.977   1.977   1.977   1.977   1.977   1.977   1.977   1.977   1.977   1.977   1.977   1.977   1.977   1.977   1.977   1.977   1.977   1.977   1.977   1.977   1.977   1.977   1.977   1.977   1.977
   155.00    1.977   1.977   1.977   1.977   1.977   1.977   1.977   1.977   1.977   1.977   1.977   1.977   1.977   1.977   1.977   1.977   1.977   1.977   1.977   1.977   1.977   1.977   1.977   1.977   1.977   1.977   1.977   1.977   1.977   1.977   1.977   1.977   1.977   1.977   1.977   1.977   1.977   1.977   1.977   1.977   1.977   1.977   1.977   1.977   1.977   1.977   1.977   1.977   1.977   1.977   1.977   1.977   1.977
   150.00    1.977   1.977   1.977   1.977   1.977   1.977   1.977   1.977   1.977   1.977   1.977   1.977   1.977   1.977   1.977   1.977   1.977   1.977   1.977   1.977   1.977   1.977   1.977   1.977   1.977   1.977   1.977   1.977   1.977   1.977   1.977   1.977   1.977   1.977   1.977   1.977   1.977   1.977   1.977   1.977   1.977   1.977   1.977   1.977   1.977   1.977   1.977   1.977   1.977   1.977   1.977   1.977   1.977
   145.00    1.977   1.977   1.977   1.977   1.977   1.977   1.977   1.977   1.977   1.977   1.977   1.977   1.977   1.977   1.977   1.977   1.977   1.977   1.977   1.977   1.977   1.977   1.977   1.977   1.977   1.977   1.977   1.977   1.977   1.977   1.977   1.977   1.977   1.977   1.977   1.977   1.977   1.977   1.977   1.977   1.977   1.977   1.977   1.977   1.977   1.977   1.977   1.977   1.977   1.977   1.977   1.977   1.977
   140.00    1.977   1.977   1.977   1.977   1.977   1.977   1.977   1.977   1.977   1.977   1.977   1.977   1.977   1.977   1.977   1.977   1.977   1.977   1.977   1.977   1.977   1.977   1.977   1.977   1.977   1.977   1.977   1.977   1.977   1.977   1.977   1.977   1.977   1.977   1.977   1.977   1.977   1.977   1.977   1.977   1.977   1.977   1.977   1.977   1.977   1.977   1.977   1.977   1.977   1.977   1.977   1.977   1.977
   135.00    1.977   1.977   1.977   1.977   1.977   1.977   1.977   1.977   1.977   1.977   1.977   1.977   1.977   1.977   1.977   1.977   1.977   1.977   1.977   1.977   1.977   1.977   1.977   1.977   1.977   1.977   1.977   1.977   1.977   1.977   1.977   1.977   1.977   1.977   1.977   1.977   1.977   1.977   1.977   1.977   1.977   1.977   1.977   1.977   1.977   1.977   1.977   1.977   1.977   1.977   1.977   1.977   1.977
   130.00    1.977   1.977   1.977   1.977   1.977   1.977   1.977   1.977   1.977   1.977   1.977   1.977   1.977   1.977   1.977   1.977   1.977   1.977   1.977   1.977   1.977   1.977   1.977   1.977   1.977   1.977   1.977   1.977   1.977   1.977   1.977   1.977   1.977   1.977   1.977   1.977   1.977   1.977   1.977   1.977   1.977   1.977   1.977   1.977   1.977   1.977   1.977   1.977   1.977   1.977   1.977   1.977   1.977
   125.00    1.977   1.977   1.977   1.977   1.977   1.977   1.977   1.977   1.977   1.977   1.977   1.977   1.977   1.977   1.977   1.977   1.977   1.977   1.977   1.977   1.977   1.977   1.977   1.977   1.977   1.977   1.977   1.977   1.977   1.977   1.977   1.977   1.977   1.977   1.977   1.977   1.977   1.977   1.977   1.977   1.977   1.977   1.977   1.977   1.977   1.977   1.977   1.977   1.977   1.977   1.977   1.977   1.977
   120.00    1.977   1.977   1.977   1.977   1.977   1.977   1.977   1.977   1.977   1.977   1.977   1.977   1.977   1.977   1.977   1.977   1.977   1.977   1.977   1.977   1.977   1.977   1.977   1.977   1.977   1.977   1.977   1.977   1.977   1.977   1.977   1.977   1.977   1.977   1.977   1.977   1.977   1.977   1.977   1.977   1.977   1.977   1.977   1.977   1.977   1.977   1.977   1.977   1.977   1.977   1.977   1.977   1.977
   115.00    1.977   1.977   1.977   1.977   1.977   1.977   1.977   1.977   1.977   1.977   1.977   1.977   1.977   1.977   1.977   1.977   1.977   1.977   1.977   1.977   1.977   1.977   1.977   1.977   1.977   1.977   1.977   1.977   1.977   1.977   1.977   1.977   1.977   1.977   1.977   1.977   1.977   1.977   1.977   1.977   1.977   1.977   1.977   1.977   1.977   1.977   1.977   1.977   1.977   1.977   1.977   1.977   1.977
   110.00    1.977   1.977   1.977   1.977   1.977   1.977   1.977   1.977   1.977   1.977   1.977   1.977   1.977   1.977   1.977   1.977   1.977   1.977   1.977   1.977   1.977   1.977   1.977   1.977   1.977   1.977   1.977   1.977   1.977   1.977   1.977   1.977   1.977   1.977   1.977   1.977   1.977   1.977   1.977   1.977   1.977   1.977   1.977   1.977   1.977   1.977   1.977   1.977   1.977   1.977   1.977   1.977   1.977
   105.00    1.977   1.977   1.977   1.977   1.977   1.977   1.977   1.977   1.977   1.977   1.977   1.977   1.977   1.977   1.977   1.977   1.977   1.977   1.977   1.977   1.977   1.977   1.977   1.977   1.977   1.977   1.977   1.977   1.977   1.977   1.977   1.977   1.977   1.977   1.977   1.977   1.977   1.977   1.977   1.977   1.977   1.977   1.977   1.977   1.977   1.977   1.977   1.977   1.977   1.977   1.977   1.977   1.977
   100.00    1.977   1.977   1.977   1.977   1.977   1.977   1.977   1.977   1.977   1.977   1.977   1.977   1.977   1.977   1.977   1.977   1.977   1.977   1.977   1.977   1.977   1.977   1.977   1.977   1.977   1.977   1.977   1.977   1.977   1.977   1.977   1.977   1.977   1.977   1.977   1.977   1.977   1.977   1.977   1.977   1.977   1.977   1.977   1.977   1.977   1.977   1.977   1.977   1.977   1.977   1.977   1.977   1.977
    95.00    1.977   1.977   1.977   1.977   1.977   1.977   1.977   1.977   1.977   1.977   1.977   1.977   1.977   1.977   1.977   1.977   1.977   1.977   1.977   1.977   1.977   1.977   1.977   1.977   1.977   1.977   1.977   1.977   1.977   1.977   1.977   1.977   1.977   1.977   1.977   1.977   1.977   1.977   1.977   1.977   1.977   1.977   1.977   1.977   1.977   1.977   1.977   1.977   1.977   1.977   1.977   1.977   1.977
    90.00    1.977   1.977   1.977   1.977   1.977   1.977   1.977   1.977   1.977   1.977   1.977   1.977   1.977   1.977   1.977   1.977   1.977   1.977   1.977   1.977   1.977   1.977   1.977   1.977   1.977   1.977   1.977   1.977   1.977   1.977   1.977   1.977   1.977   1.977   1.977   1.977   1.977   1.977   1.977   1.977   1.977   1.977   1.977   1.977   1.977   1.977   1.977   1.977   1.977   1.977   1.977   1.977   1.977
    85.00    1.977   1.977   1.977   1.977   1.977   1.977   1.977   1.977   1.977   1.977   1.977   1.977   1.977   1.977   1.977   1.977   1.977   1.977   1.977   1.977   1.977   1.977   1.977   1.977   1.977   1.977   1.977   1.977   1.977   1.977   1.977   1.977   1.977   1.977   1.977   1.977   1.977   1.977   1.977   1.977   1.977   1.977   1.977   1.977   1.977   1.977   1.977   1.977   1.977   1.977   1.977   1.977   1.977
    80.00    1.977   1.977   1.977   1.977   1.977   1.977   1.977   1.977   1.977   1.977   1.977   1.977   1.977   1.977   1.977   1.977   1.977   1.977   1.977   1.977   1.977   1.977   1.977   1.977   1.977   1.977   1.977   1.977   1.977   1.977   1.977   1.977   1.977   1.977   1.977   1.977   1.977   1.977   1.977   1.977   1.977   1.977   1.977   1.977   1.977   1.977   1.977   1.977   1.977   1.977   1.977   1.977   1.977
    75.00    1.977   1.977   1.977   1.977   1.977   1.977   1.977   1.977   1.977   1.977   1.977   1.977   1.977   1.977   1.977   1.977   1.977   1.977   1.977   1.977   1.977   1.977   1.977   1.977   1.977   1.977   1.977   1.977   1.977   1.977   1.977   1.977   1.977   1.977   1.977   1.977   1.977   1.977   1.977   1.977   1.977   1.977   1.977   1.977   1.977   1.977   1.977   1.977   1.977   1.977   1.977   1.977   1.977
    70.00    1.977   1.977   1.977   1.977   1.977   1.977   1.977   1.977   1.977   1.977   1.977   1.977   1.977   1.977   1.977   1.977   1.977   1.977   1.977   1.977   1.977   1.977   1.977   1.977   1.977   1.977   1.977   1.977   1.977   1.977   1.977   1.977   1.977   1.977   1.977   1.977   1.977   1.977   1.977   1.977   1.977   1.977   1.977   1.977   1.977   1.977   1.977   1.977   1.977   1.977   1.977   1.977   1.977
    65.00    1.977   1.977   1.977   1.977   1.977   1.977   1.977   1.977   1.977   1.977   1.977   1.977   1.977   1.977   1.977   1.977   1.977   1.977   1.977   1.977   1.977   1.977   1.977   1.977   1.977   1.977   1.977   1.977   1.977   1.977   1.977   1.977   1.977   1.977   1.977   1.977   1.977   1.977   1.977   1.977   1.977   1.977   1.977   1.977   1.977   1.977   1.977   1.977   1.977   1.977   1.977   1.977   1.977
    60.00    1.977   1.977   1.977   1.977   1.977   1.977   1.977   1.977   1.977   1.977   1.977   1.977   1.977   1.977   1.977   1.977   1.977   1.977   1.977   1.977   1.977   1.977   1.977   1.977   1.977   1.977   1.977   1.977   1.977   1.977   1.977   1.977   1.977   1.977   1.977   1.977   1.977   1.977   1.977   1.977   1.977   1.977   1.977   1.977   1.977   1.977   1.977   1.977   1.977   1.977   1.977   1.977   1.977
    55.00    1.977   1.977   1.977   1.977   1.977   1.977   1.977   1.977   1.977   1.977   1.977   1.977   1.977   1.977   1.977   1.977   1.977   1.977   1.977   1.977   1.977   1.977   1.977   1.977   1.977   1.977   1.977   1.977   1.977   1.977   1.977   1.977   1.977   1.977   1.977   1.977   1.977   1.977   1.977   1.977   1.977   1.977   1.977   1.977   1.977   1.977   1.977   1.977   1.977   1.977   1.977   1.977   1.977
    50.00    1.977   1.977   1.977   1.977   1.977   1.977   1.977   1.977   1.977   1.977   1.977   1.977   1.977   1.977   1.977   1.977   1.977   1.977   1.977   1.977   1.977   1.977   1.977   1.977   1.977   1.977   1.977   1.977   1.977   1.977   1.977   1.977   1.977   1.977   1.977   1.977   1.977   1.977   1.977   1.977   1.977   1.977   1.977   1.977   1.977   1.977   1.977   1.977   1.977   1.977   1.977   1.977   1.977
    45.00    1.977   1.977   1.977   1.977   1.977   1.977   1.977   1.977   1.977   1.977   1.977   1.977   1.977   1.977   1.977   1.977   1.977   1.977   1.977   1.977   1.977   1.977   1.977   1.977   1.977   1.977   1.977   1.977   1.977   1.977   1.977   1.977   1.977   1.977   1.977   1.977   1.977   1.977   1.977   1.977   1.977   1.977   1.977   1.977   1.977   1.977   1.977   1.977   1.977   1.977   1.977   1.977   1.977
    40.00    1.977   1.977   1.977   1.977   1.977   1.977   1.977   1.977   1.977   1.977   1.977   1.977   1.977   1.977   1.977   1.977   1.977   1.977   1.977   1.977   1.977   1.977   1.977   1.977   1.977   1.977   1.977   1.977   1.977   1.977   1.977   1.977   1.977   1.977   1.977   1.977   1.977   1.977   1.977   1.977   1.977   1.977   1.977   1.977   1.977   1.977   1.977   1.977   1.977   1.977   1.977   1.977   1.977
    35.00    1.977   1.977   1.977   1.977   1.977   1.977   1.977   1.977   1.977   1.977   1.977   1.977   1.977   1.977   1.977   1.977   1.977   1.977   1.977   1.977   1.977   1.977   1.977   1.977   1.977   1.977   1.977   1.977   1.977   1.977   1.977   1.977   1.977   1.977   1.977   1.977   1.977   1.977   1.977   1.977   1.977   1.977   1.977   1.977   1.977   1.977   1.977   1.977   1.977   1.977   1.977   1.977   1.977
    30.00    1.977   1.977   1.977   1.977   1.977   1.977   1.977   1.977   1.977   1.977   1.977   1.977   1.977   1.977   1.977   1.977   1.977   1.977   1.977   1.977   1.977   1.977   1.977   1.977   1.977   1.977   1.977   1.977   1.977   1.977   1.977   1.977   1.977   1.977   1.977   1.977   1.977   1.977   1.977   1.977   1.977   1.977   1.977   1.977   1.977   1.977   1.977   1.977   1.977   1.977   1.977   1.977   1.977
    25.00    1.977   1.977   1.977   1.977   1.977   1.977   1.977   1.977   1.977   1.977   1.977   1.977   1.977   1.977   1.977   1.977   1.977   1.977   1.977   1.977   1.977   1.977   1.977   1.977   1.977   1.977   1.977   1.977   1.977   1.977   1.977   1.977   1.977   1.977   1.977   1.977   1.977   1.977   1.977   1.977   1.977   1.977   1.977   1.977   1.977   1.977   1.977   1.977   1.977   1.977   1.977   1.977   1.977
    20.00    1.977   1.977   1.977   1.977   1.977   1.977   1.977   1.977   1.977   1.977   1.977   1.977   1.977   1.977   1.977   1.977   1.977   1.977   1.977   1.977   1.977   1.977   1.977   1.977   1.977   1.977   1.977   1.977   1.977   1.977   1.977   1.977   1.977   1.977   1.977   1.977   1.977   1.977   1.977   1.977   1.977   1.977   1.977   1.977   1.977   1.977   1.977   1.977   1.977   1.977   1.977   1.977   1.977
    15.00    1.977   1.977   1.977   1.977   1.977   1.977   1.977   1.977   1.977   1.977   1.977   1.977   1.977   1.977   1.977   1.977   1.977   1.977   1.977   1.977   1.977   1.977   1.977   1.977   1.977   1.977   1.977   1.977   1.977   1.977   1.977   1.977   1.977   1.977   1.977   1.977   1.977   1.977   1.977   1.977   1.977   1.977   1.977   1.977   1.977   1.977   1.977   1.977   1.977   1.977   1.977   1.977   1.977
    10.00    1.977   1.977   1.977   1.977   1.977   1.977   1.977   1.977   1.977   1.977   1.977   1.977   1.977   1.977   1.977   1.977   1.977   1.977   1.977   1.977   1.977   1.977   1.977   1.977   1.977   1.977   1.977   1.977   1.977   1.977   1.977   1.977   1.977   1.977   1.977   1.977   1.977   1.977   1.977   1.977   1.977   1.977   1.977   1.977   1.977   1.977   1.977   1.977   1.977   1.977   1.977   1.977   1.977

   Mean standard deviation across all grid points:
      u component:    4.031 m/s
      v component:    3.233 m/s
      w component:    1.977 m/s


U-component (X) statistics from the hub grid point:

   Mean =  37.5000 m/s
   TI   =  11.1359 %

Nyquist frequency of turbulent wind field =        10.000 Hz


Processing complete.  3099.4 CPU seconds used.
