
This summary file was generated by TurbSim (v1.50, 25-Sep-2009) on 23-Oct-2024 at 19:42:29.


Runtime Options:

    250000  Random seed #1
    RANLUX  Type of random number generator
         F  Output binary HH turbulence parameters?
         F  Output formatted turbulence parameters?
         F  Output AeroDyn HH files?
         T  Output AeroDyn FF files?
         T  Output BLADED FF files?
         F  Output tower data?
         F  Output formatted FF files?
         F  Output coherent turbulence time step file?
         T  Clockwise rotation when looking downwind?
 0 -  NONE  IEC turbulence models scaled to exact specified standard deviation


Turbine/Model Specifications:

        53  Vertical grid-point matrix dimension
        53  Horizontal grid-point matrix dimension
     0.050  Time step [seconds]
   650.000  Analysis time [seconds]
   610.000  Usable output time [seconds]
   140.000  Hub height [m]
   260.000  Grid height [m]
   260.000  Grid width [m]
     0.000  Vertical flow angle [degrees]
     0.000  Horizontal flow angle [degrees]


Meteorological Boundary Conditions:

    IECKAI  IEC Kaimal spectral model
         1  IEC standard: IEC 61400-1 Ed. 3: 2005
         B  IEC turbulence characteristic
    3EWM50  IEC Extreme 50-Year Wind Speed Model
       N/A  IEC Extreme Turbulence Model (ETM) "c" parameter [m/s]
       IEC  Wind profile type
   140.000  Reference height [m]
       N/A  Reference wind speed [m/s]
       N/A  Jet height [m]
       N/A  Power law exponent
     0.030  Surface roughness length [m]


You have requested that the following file(s) be generated:

   .\TurbSim.bts (AeroDyn/TurbSim full-field wind file)
   .\TurbSim.wnd (AeroDyn/BLADED full-field wnd file)


Turbulence Simulation Scaling Parameter Summary:

   Turbulence model used                            =  IEC Kaimal
   Turbulence characteristic                        =  3B
   IEC turbulence type                              =  Extreme 50-Year Wind Speed Model
   Reference wind speed average over 10 minutes     =   37.500 m/s
   Annual wind speed average at hub height          =    7.500 m/s
   IEC standard                                     =  IEC 61400-1 Ed. 3: 2005
   Mean wind speed at hub height                    =   37.500 m/s
   Expected value of turbulence intensity at 15 m/s =   14.000%
   Characteristic value of standard deviation       =    4.125 m/s
   Turbulence scale                                 =   42.000 m
   u-component integral scale                       =  340.200 m
   Coherency scale                                  =  340.200 m
   Characteristic value of hub turbulence intensity =   11.000%
   Gradient Richardson number                       =    0.000

   Wind profile type                                =  Power law on rotor disk, logarithmic elsewhere
   Power law exponent                               =    0.110
   Mean shear across rotor disk                     =    0.047 (m/s)/m
   Assumed rotor diameter                           =  260.000 m
   Surface roughness length                         =    0.030 m

   Number of time steps in the FFT                  =    13000
   Number of time steps output                      =    12339


Mean Flow Angles:

   Vertical   =   0.0 degrees
   Horizontal =   0.0 degrees

Mean Wind Speed Profile:

   Height    Wind Speed   Horizontal Angle  U-comp (X)   V-comp (Y)   W-comp (Z)
     (m)        (m/s)         (degrees)       (m/s)        (m/s)        (m/s)   
   ------    ----------   ----------------  ----------   ----------   ----------
    270.0       40.31            0.00         40.31         0.00         0.00
    265.0       40.23            0.00         40.23         0.00         0.00
    260.0       40.14            0.00         40.14         0.00         0.00
    255.0       40.06            0.00         40.06         0.00         0.00
    250.0       39.97            0.00         39.97         0.00         0.00
    245.0       39.88            0.00         39.88         0.00         0.00
    240.0       39.79            0.00         39.79         0.00         0.00
    235.0       39.70            0.00         39.70         0.00         0.00
    230.0       39.60            0.00         39.60         0.00         0.00
    225.0       39.51            0.00         39.51         0.00         0.00
    220.0       39.41            0.00         39.41         0.00         0.00
    215.0       39.31            0.00         39.31         0.00         0.00
    210.0       39.21            0.00         39.21         0.00         0.00
    205.0       39.11            0.00         39.11         0.00         0.00
    200.0       39.00            0.00         39.00         0.00         0.00
    195.0       38.89            0.00         38.89         0.00         0.00
    190.0       38.78            0.00         38.78         0.00         0.00
    185.0       38.67            0.00         38.67         0.00         0.00
    180.0       38.55            0.00         38.55         0.00         0.00
    175.0       38.43            0.00         38.43         0.00         0.00
    170.0       38.31            0.00         38.31         0.00         0.00
    165.0       38.18            0.00         38.18         0.00         0.00
    160.0       38.05            0.00         38.05         0.00         0.00
    155.0       37.92            0.00         37.92         0.00         0.00
    150.0       37.79            0.00         37.79         0.00         0.00
    145.0       37.65            0.00         37.65         0.00         0.00
    140.0       37.50            0.00         37.50         0.00         0.00
    135.0       37.35            0.00         37.35         0.00         0.00
    130.0       37.20            0.00         37.20         0.00         0.00
    125.0       37.04            0.00         37.04         0.00         0.00
    120.0       36.87            0.00         36.87         0.00         0.00
    115.0       36.70            0.00         36.70         0.00         0.00
    110.0       36.52            0.00         36.52         0.00         0.00
    105.0       36.33            0.00         36.33         0.00         0.00
    100.0       36.14            0.00         36.14         0.00         0.00
     95.0       35.93            0.00         35.93         0.00         0.00
     90.0       35.72            0.00         35.72         0.00         0.00
     85.0       35.50            0.00         35.50         0.00         0.00
     80.0       35.26            0.00         35.26         0.00         0.00
     75.0       35.01            0.00         35.01         0.00         0.00
     70.0       34.75            0.00         34.75         0.00         0.00
     65.0       34.46            0.00         34.46         0.00         0.00
     60.0       34.16            0.00         34.16         0.00         0.00
     55.0       33.84            0.00         33.84         0.00         0.00
     50.0       33.48            0.00         33.48         0.00         0.00
     45.0       33.10            0.00         33.10         0.00         0.00
     40.0       32.67            0.00         32.67         0.00         0.00
     35.0       32.20            0.00         32.20         0.00         0.00
     30.0       31.65            0.00         31.65         0.00         0.00
     25.0       31.03            0.00         31.03         0.00         0.00
     20.0       30.27            0.00         30.27         0.00         0.00
     15.0       29.33            0.00         29.33         0.00         0.00
     10.0       28.05            0.00         28.05         0.00         0.00


Harvested Random Seeds after Generation of the Random Numbers:

    508955588 K1
            0 K2


Hub-Height Simulated Turbulence Statistical Summary:

   Type of Wind        Min (m/s)   Mean (m/s)    Max (m/s)  Sigma (m/s)       TI (%)
   ----------------    ---------   ----------    ---------  -----------       ------
   Longitudinal (u)        23.51        37.50        49.99        3.784       10.091
   Lateral (v)            -12.14         0.00        10.26        3.233        8.621
   Vertical (w)            -7.00         0.00         6.87        1.977        5.273
   U component             23.51        37.50        49.99        3.784       10.091
   V component            -12.14         0.00        10.26        3.233        8.621
   W component             -7.00         0.00         6.87        1.977        5.273
   Horizontal (U&V)        23.52        37.64        50.00        3.776       10.033
   Total                   23.72        37.69        50.00        3.772       10.007

                       Min Reynolds     Mean Reynolds    Max Reynolds    Correlation
   Product             Stress (m/s)^2   Stress (m/s)^2   Stress (m/s)^2  Coefficient
   ----------------    --------------   --------------   --------------  -----------
   u'w'                    -51.058             0.671            65.610         0.090
   u'v'                    -76.963             0.452            77.510         0.037
   v'w'                    -43.266            -0.415            48.800        -0.065


   Friction Velocity (Ustar)  =      0.819 m/s
   Maximum Instantaneous TKE  =    103.028 (m/s)^2
   Maximum Instantaneous CTKE =     44.692 (m/s)^2


Grid Point Variance Summary:

   Y-coord -130.00 -125.00 -120.00 -115.00 -110.00 -105.00 -100.00  -95.00  -90.00  -85.00  -80.00  -75.00  -70.00  -65.00  -60.00  -55.00  -50.00  -45.00  -40.00  -35.00  -30.00  -25.00  -20.00  -15.00  -10.00   -5.00    0.00    5.00   10.00   15.00   20.00   25.00   30.00   35.00   40.00   45.00   50.00   55.00   60.00   65.00   70.00   75.00   80.00   85.00   90.00   95.00  100.00  105.00  110.00  115.00  120.00  125.00  130.00

   Height   Standard deviation at grid points for the u component:
   270.00    3.695   3.707   3.762   3.718   3.788   3.869   3.728   3.759   3.846   3.820   3.743   3.718   3.716   3.621   3.546   3.483   3.412   3.402   3.549   3.621   3.678   3.575   3.680   3.830   3.909   3.868   3.928   3.979   3.914   3.918   3.874   4.020   4.164   4.060   3.984   3.991   3.951   4.061   4.086   4.160   4.265   4.218   4.109   4.170   4.220   4.021   3.973   3.967   4.062   4.027   4.014   3.898   4.002
   265.00    3.685   3.711   3.638   3.593   3.781   3.686   3.790   3.751   3.805   3.807   3.654   3.610   3.566   3.576   3.549   3.437   3.469   3.583   3.625   3.696   3.666   3.696   3.812   3.782   3.831   3.858   3.873   3.851   3.846   4.009   3.874   3.941   3.965   3.962   3.844   3.876   3.933   4.070   4.036   4.079   4.096   4.078   3.982   3.987   4.044   4.076   4.109   4.004   4.078   4.068   4.022   3.912   4.063
   260.00    3.640   3.593   3.532   3.528   3.556   3.742   3.623   3.657   3.701   3.696   3.628   3.604   3.469   3.500   3.648   3.528   3.633   3.640   3.762   3.749   3.741   3.705   3.872   3.826   3.817   3.811   3.876   3.908   3.892   3.936   3.878   3.904   3.883   3.886   3.868   3.929   3.956   4.060   3.919   4.026   4.030   4.037   3.974   3.914   3.928   3.980   4.018   3.975   4.077   4.012   4.031   4.021   4.013
   255.00    3.508   3.506   3.520   3.515   3.514   3.589   3.539   3.562   3.636   3.721   3.708   3.637   3.550   3.566   3.535   3.741   3.777   3.764   3.850   3.799   3.791   3.691   3.806   3.816   3.755   3.763   3.843   3.940   3.855   3.852   3.759   3.793   3.819   3.698   3.869   3.851   3.995   4.058   3.880   3.932   3.999   3.918   4.036   3.840   3.922   4.003   3.929   3.994   4.009   3.868   3.831   3.961   4.023
   250.00    3.514   3.528   3.518   3.551   3.389   3.660   3.519   3.482   3.583   3.665   3.716   3.696   3.601   3.488   3.500   3.689   3.790   3.754   3.825   3.807   3.827   3.908   3.874   3.905   3.962   3.980   3.869   3.941   4.005   3.789   3.679   3.713   3.689   3.746   3.743   3.928   3.929   3.834   3.827   3.842   4.029   3.890   4.004   3.962   3.960   3.852   3.901   3.830   3.866   3.770   3.790   3.995   3.990
   245.00    3.465   3.496   3.459   3.527   3.497   3.559   3.500   3.500   3.577   3.755   3.835   3.634   3.610   3.597   3.718   3.907   3.813   3.746   3.812   3.718   3.819   3.918   3.980   3.989   4.061   4.142   3.985   3.985   3.953   3.881   3.800   3.697   3.739   3.755   3.775   3.878   3.883   3.784   3.737   3.923   4.135   3.955   3.829   3.928   3.909   3.855   3.912   3.794   3.761   3.747   3.820   3.958   3.987
   240.00    3.424   3.553   3.545   3.487   3.499   3.446   3.479   3.490   3.485   3.680   3.711   3.667   3.726   3.678   3.750   3.884   3.921   3.812   3.671   3.754   3.876   3.885   3.919   4.023   4.089   4.205   4.156   4.047   4.012   3.898   3.784   3.752   3.722   3.859   3.846   3.952   3.897   3.948   3.895   3.829   3.991   3.979   3.959   3.986   3.810   3.774   3.859   3.845   3.742   3.681   3.774   3.846   4.004
   235.00    3.393   3.455   3.438   3.438   3.427   3.533   3.468   3.441   3.551   3.624   3.659   3.687   3.758   3.766   3.971   3.901   3.929   3.815   3.824   3.850   3.962   3.977   3.991   4.183   4.167   4.251   4.217   4.114   4.048   3.959   3.876   3.696   3.729   3.893   4.010   3.902   3.878   3.934   4.014   3.834   3.912   3.936   3.861   3.746   3.700   3.706   3.923   3.863   3.805   3.857   3.779   3.852   4.042
   230.00    3.593   3.413   3.386   3.409   3.506   3.592   3.572   3.506   3.502   3.551   3.687   3.705   3.741   3.731   3.787   4.067   3.980   4.036   3.942   4.008   4.028   4.052   3.998   4.097   4.132   4.089   4.184   4.040   3.901   3.962   3.891   3.789   3.753   3.859   3.957   3.958   3.964   3.969   3.934   3.931   3.959   3.888   3.851   3.810   3.695   3.743   3.770   3.754   3.746   3.842   3.836   3.925   3.940
   225.00    3.501   3.539   3.428   3.464   3.559   3.618   3.625   3.593   3.475   3.590   3.710   3.758   3.793   3.780   3.886   4.034   4.108   4.000   4.028   4.150   4.072   3.923   3.985   4.029   4.097   4.018   4.109   3.911   3.973   4.004   3.967   3.870   3.725   3.955   3.964   3.932   3.881   4.054   3.836   3.837   3.836   3.743   3.921   3.811   3.749   3.765   3.735   3.686   3.774   3.795   3.798   3.890   3.976
   220.00    3.543   3.543   3.467   3.426   3.558   3.685   3.736   3.710   3.673   3.723   3.645   3.812   3.819   3.807   3.893   3.971   4.060   4.000   3.938   4.106   4.094   3.968   4.095   4.145   3.977   3.987   4.075   4.025   3.952   3.917   3.823   3.844   3.813   3.929   4.030   4.063   3.923   4.021   3.998   3.905   3.817   3.766   3.726   3.752   3.740   3.757   3.685   3.747   3.646   3.792   3.819   3.841   3.852
   215.00    3.590   3.527   3.420   3.581   3.640   3.860   3.836   3.890   3.837   3.804   3.781   3.805   3.844   3.892   3.996   3.971   3.942   3.908   3.944   3.965   3.987   4.119   4.014   4.012   3.972   3.920   4.016   3.890   3.891   3.863   3.825   3.816   3.829   3.974   4.026   4.148   4.082   4.019   3.886   3.852   3.816   3.719   3.676   3.673   3.667   3.687   3.803   3.699   3.585   3.705   3.791   3.763   3.783
   210.00    3.490   3.516   3.554   3.643   3.653   3.843   3.814   3.972   3.912   3.799   3.792   3.851   3.814   3.786   3.894   3.881   3.961   3.831   3.797   3.899   3.921   4.011   3.936   3.887   3.905   3.830   3.913   3.903   3.799   3.710   3.775   3.876   3.899   3.949   4.014   4.045   3.950   3.866   3.822   3.798   3.842   3.757   3.654   3.682   3.709   3.773   3.627   3.700   3.683   3.614   3.635   3.603   3.563
   205.00    3.612   3.572   3.504   3.646   3.689   3.828   3.860   3.751   3.847   3.900   3.881   3.860   3.894   3.861   3.832   3.774   3.903   3.879   3.855   3.850   3.824   3.832   3.923   3.875   3.965   3.829   3.848   3.857   3.817   3.814   3.872   3.940   4.009   4.012   3.938   3.958   3.858   3.857   3.908   3.848   3.832   3.911   3.763   3.787   3.773   3.775   3.733   3.666   3.631   3.580   3.585   3.599   3.567
   200.00    3.652   3.544   3.575   3.587   3.623   3.704   3.765   3.834   3.749   3.778   3.834   3.935   3.750   3.819   3.720   3.791   3.755   3.842   3.842   3.881   3.924   3.796   3.827   3.807   3.840   3.819   3.831   3.842   3.881   3.845   3.944   4.046   3.976   3.955   3.957   3.900   3.663   3.745   3.789   3.813   3.772   3.802   3.883   3.888   3.918   3.731   3.569   3.613   3.527   3.643   3.455   3.491   3.459
   195.00    3.658   3.605   3.435   3.460   3.691   3.807   3.649   3.672   3.720   3.914   3.841   3.911   3.783   3.799   3.703   3.691   3.679   3.788   3.819   3.948   3.817   3.852   3.854   3.893   3.935   3.957   3.866   3.928   3.814   3.854   4.074   3.941   3.901   3.857   3.911   3.830   3.866   3.709   3.734   3.770   3.856   3.821   3.909   3.802   3.836   3.802   3.565   3.466   3.600   3.596   3.508   3.531   3.478
   190.00    3.748   3.642   3.607   3.661   3.814   3.863   3.727   3.742   3.825   3.817   3.784   3.893   3.855   3.580   3.705   3.775   3.803   3.665   3.659   3.672   3.814   3.931   3.917   3.910   3.955   3.982   3.950   4.022   3.953   3.799   3.948   3.875   3.910   3.869   3.849   3.881   3.896   3.832   3.777   3.811   3.752   3.803   3.803   3.753   3.721   3.823   3.624   3.573   3.548   3.582   3.549   3.462   3.412
   185.00    3.663   3.713   3.664   3.747   3.792   3.731   3.759   3.766   3.831   3.771   3.805   3.850   3.699   3.624   3.688   3.757   3.816   3.698   3.619   3.837   3.869   3.925   3.870   3.920   3.940   4.018   3.996   3.881   3.765   3.892   4.006   4.006   3.976   3.890   3.847   3.901   3.798   3.840   3.777   3.787   3.784   3.899   3.822   3.708   3.782   3.754   3.714   3.619   3.609   3.492   3.444   3.424   3.525
   180.00    3.672   3.685   3.676   3.769   3.828   3.793   3.767   3.797   3.816   3.757   3.794   3.703   3.688   3.636   3.573   3.689   3.714   3.775   3.769   3.861   3.882   3.872   3.891   3.919   3.944   4.004   3.882   3.801   3.754   3.903   3.923   4.030   4.013   3.959   3.896   3.934   4.074   3.977   3.901   3.814   3.871   3.820   3.848   3.845   3.791   3.734   3.633   3.567   3.561   3.430   3.495   3.406   3.541
   175.00    3.785   3.717   3.710   3.700   3.879   3.795   3.933   3.922   3.909   3.865   3.856   3.708   3.704   3.742   3.661   3.729   3.781   3.789   3.810   3.919   3.949   3.906   3.901   3.858   3.821   3.894   3.778   3.791   3.764   3.769   3.986   3.923   3.881   4.083   3.951   4.049   4.068   4.080   4.063   3.965   3.874   3.701   3.731   3.681   3.687   3.711   3.610   3.608   3.607   3.641   3.536   3.494   3.508
   170.00    3.772   3.729   3.513   3.662   3.782   3.903   3.963   3.876   4.029   3.943   3.910   3.846   3.821   3.783   3.768   3.767   3.726   3.814   3.824   3.897   3.920   3.922   3.828   3.778   3.864   3.793   3.691   3.785   3.689   3.788   3.772   3.909   3.975   4.048   4.000   4.051   4.114   4.066   4.165   4.054   3.846   3.706   3.705   3.729   3.681   3.653   3.584   3.604   3.576   3.636   3.569   3.748   3.601
   165.00    3.754   3.549   3.645   3.593   3.717   3.748   3.861   3.910   3.929   4.022   3.978   4.025   3.859   3.810   3.685   3.680   3.658   3.680   3.724   3.758   3.766   3.839   3.612   3.754   3.770   3.735   3.806   3.715   3.842   3.827   3.771   3.822   3.886   4.066   4.016   4.009   4.027   4.045   3.979   3.975   3.783   3.614   3.739   3.681   3.756   3.697   3.762   3.643   3.668   3.689   3.683   3.813   3.612
   160.00    3.704   3.685   3.683   3.707   3.792   3.717   3.904   3.928   3.945   4.045   4.137   3.975   3.972   3.846   3.783   3.791   3.711   3.734   3.757   3.671   3.726   3.732   3.728   3.641   3.585   3.699   3.691   3.656   3.667   3.689   3.811   3.817   3.893   3.983   3.919   3.965   3.975   3.903   3.895   3.907   3.778   3.617   3.653   3.573   3.728   3.769   3.721   3.605   3.764   3.729   3.595   3.725   3.774
   155.00    3.612   3.621   3.756   3.781   3.802   3.866   3.828   3.948   4.056   4.053   4.151   4.074   3.978   3.866   3.860   3.857   3.731   3.777   3.741   3.655   3.716   3.715   3.660   3.763   3.732   3.784   3.698   3.832   3.692   3.753   3.848   3.732   3.781   3.908   3.963   3.926   3.838   3.822   3.709   3.854   3.707   3.559   3.639   3.540   3.614   3.768   3.739   3.765   3.829   3.753   3.731   3.704   3.694
   150.00    3.608   3.576   3.636   3.726   3.860   3.969   3.958   4.000   4.030   4.061   4.078   4.034   4.076   4.005   3.898   3.872   3.825   3.782   3.615   3.713   3.726   3.777   3.814   3.880   3.831   3.771   3.784   3.833   3.692   3.744   3.851   3.734   3.845   3.773   3.864   3.919   3.750   3.763   3.815   3.741   3.776   3.561   3.441   3.573   3.622   3.768   3.798   3.799   3.777   3.849   3.734   3.751   3.797
   145.00    3.633   3.705   3.864   3.872   3.903   3.917   3.963   4.036   4.061   4.075   3.986   4.042   4.087   3.996   3.942   3.914   3.802   3.836   3.737   3.900   3.806   3.842   3.809   3.864   3.877   3.875   3.950   3.858   3.699   3.804   3.918   3.942   3.932   3.880   3.820   3.742   3.647   3.647   3.640   3.722   3.655   3.531   3.335   3.539   3.530   3.699   3.745   3.807   3.811   3.857   3.838   3.845   3.932
   140.00    3.651   3.639   3.691   3.851   3.922   3.894   3.985   4.097   4.082   4.019   4.017   3.971   3.920   4.041   3.924   3.911   3.825   3.869   3.736   3.810   3.885   3.869   3.952   3.898   3.858   3.810   3.784   3.914   3.941   3.864   3.987   3.992   3.968   3.804   3.787   3.757   3.699   3.796   3.841   3.821   3.601   3.624   3.427   3.486   3.712   3.615   3.775   3.733   3.726   3.878   3.805   3.814   3.834
   135.00    3.402   3.450   3.597   3.731   3.891   3.840   3.832   3.916   3.977   3.849   3.851   3.993   3.941   3.980   3.885   3.818   3.862   3.847   3.763   3.772   3.927   3.983   3.906   3.786   3.788   3.897   3.856   3.967   4.021   4.017   4.007   3.886   3.887   3.876   3.835   3.722   3.755   3.688   3.737   3.662   3.597   3.618   3.499   3.524   3.643   3.620   3.622   3.723   3.897   3.917   3.849   3.852   3.929
   130.00    3.395   3.432   3.602   3.697   3.780   3.823   3.811   3.884   3.872   3.983   3.945   3.924   3.927   4.122   4.016   3.859   3.983   3.893   3.786   3.780   3.905   4.052   3.975   3.895   3.940   4.046   4.021   4.104   4.041   4.048   3.974   3.852   3.890   3.896   3.831   3.771   3.700   3.601   3.656   3.655   3.624   3.566   3.571   3.601   3.708   3.636   3.669   3.788   3.892   3.946   3.865   3.907   3.962
   125.00    3.484   3.607   3.656   3.742   3.771   3.784   3.877   3.820   3.875   3.947   4.026   4.007   4.067   4.182   4.128   4.031   4.073   4.054   3.902   3.887   4.026   4.143   4.038   4.121   4.131   4.126   4.246   4.165   4.013   3.911   3.904   3.809   3.918   3.843   3.772   3.690   3.635   3.720   3.734   3.668   3.731   3.669   3.613   3.619   3.693   3.804   3.781   3.994   3.871   3.885   3.914   3.942   4.033
   120.00    3.590   3.644   3.681   3.834   3.902   3.846   3.767   3.792   3.883   3.939   3.975   4.008   4.205   4.369   4.228   4.081   4.096   4.186   4.061   3.962   3.883   4.066   4.135   4.101   4.066   4.209   4.289   4.255   4.139   4.109   4.009   3.875   3.898   3.932   4.002   3.795   3.849   3.757   3.666   3.743   3.672   3.730   3.655   3.539   3.545   3.663   3.778   3.943   3.970   3.897   3.892   3.982   4.000
   115.00    3.590   3.646   3.591   3.679   3.802   3.841   3.773   3.893   3.823   3.888   3.912   4.071   4.273   4.281   4.256   4.023   4.120   4.170   4.167   3.908   3.939   4.020   4.131   4.189   4.005   4.024   4.138   4.177   4.092   4.085   4.016   4.066   4.066   3.964   4.014   3.935   3.896   3.799   3.782   3.754   3.751   3.760   3.655   3.587   3.580   3.696   3.853   3.906   3.875   3.864   3.833   3.957   3.941
   110.00    3.653   3.527   3.666   3.685   3.686   3.772   3.851   3.867   3.833   3.923   3.943   4.087   4.197   4.161   4.079   4.069   4.083   3.997   3.919   3.864   3.928   4.049   4.067   4.301   4.120   3.970   3.958   4.143   4.055   3.982   3.989   4.129   4.144   4.129   4.107   3.960   3.988   3.845   3.739   3.805   3.841   3.839   3.698   3.607   3.464   3.511   3.739   3.771   3.761   3.859   3.899   3.915   3.982
   105.00    3.671   3.687   3.700   3.642   3.790   3.873   3.900   3.932   3.869   4.035   3.999   4.070   4.081   4.184   4.207   4.118   4.142   3.985   3.880   3.773   3.824   4.073   4.123   4.148   4.127   3.964   4.092   4.035   4.050   4.071   4.075   4.231   4.183   4.160   4.109   4.056   3.940   3.793   3.754   3.894   3.923   3.875   3.743   3.633   3.686   3.720   3.675   3.676   3.635   3.741   3.812   3.908   4.012
   100.00    3.783   3.752   3.794   3.786   3.772   3.840   3.829   3.940   3.989   4.047   4.022   3.947   4.032   4.069   4.200   4.167   3.969   3.946   3.856   3.822   3.826   3.951   4.068   4.136   4.048   4.043   3.966   4.037   4.020   4.137   4.233   4.244   4.184   4.170   4.171   4.064   3.971   3.883   3.882   3.905   4.042   3.887   3.834   3.816   3.767   3.729   3.718   3.590   3.652   3.696   3.629   3.771   3.851
    95.00    3.838   3.968   3.913   3.893   3.944   3.926   4.014   3.993   4.082   3.965   3.936   4.079   4.014   4.002   3.912   4.023   3.873   3.819   3.832   3.936   3.860   3.854   4.041   4.148   4.045   3.984   4.087   4.160   4.046   4.105   4.206   4.268   4.214   4.282   4.225   4.164   4.069   3.877   3.949   3.960   4.020   3.972   3.980   3.854   3.946   3.815   3.698   3.759   3.680   3.727   3.759   3.765   3.784
    90.00    3.901   3.868   3.880   3.855   3.960   3.991   4.031   4.062   4.137   4.021   4.047   4.001   4.133   4.007   4.033   3.996   3.910   3.880   3.977   3.883   3.979   3.940   4.027   3.974   4.001   3.991   4.183   4.293   4.193   4.192   4.224   4.288   4.202   4.209   4.176   4.175   4.097   3.940   3.957   3.994   3.987   3.941   3.905   3.911   3.779   3.872   3.881   3.795   3.871   3.837   3.732   3.813   3.831
    85.00    3.980   3.994   3.977   3.979   4.062   4.104   4.250   4.127   4.058   4.036   4.082   4.003   4.044   4.086   4.103   4.121   3.889   3.942   3.945   3.958   4.047   4.078   3.940   3.983   4.147   4.082   4.293   4.315   4.324   4.315   4.337   4.371   4.264   4.207   4.333   4.294   4.197   4.080   4.093   3.968   3.933   3.961   3.870   3.983   3.792   3.827   3.924   3.829   3.864   3.847   3.853   3.915   3.898
    80.00    3.931   4.075   4.152   4.225   4.247   4.298   4.229   4.187   4.194   4.174   4.021   3.965   4.020   3.950   3.929   3.982   3.953   3.939   4.026   3.980   4.089   4.021   4.032   4.067   4.184   4.246   4.308   4.294   4.310   4.325   4.342   4.355   4.371   4.319   4.391   4.256   4.266   4.183   4.130   4.046   4.047   4.110   3.867   3.848   3.715   3.890   3.922   3.848   3.850   3.971   3.876   3.884   3.967
    75.00    4.015   4.032   4.227   4.368   4.235   4.284   4.256   4.187   4.233   4.277   4.063   4.040   3.947   3.831   3.901   3.963   3.894   3.916   3.936   3.931   4.061   4.161   4.186   4.078   4.159   4.269   4.215   4.350   4.279   4.281   4.225   4.369   4.331   4.352   4.288   4.226   4.324   4.296   4.161   4.194   4.068   3.959   3.940   3.827   3.819   3.744   3.863   3.814   3.856   3.916   3.764   3.901   3.942
    70.00    4.054   4.172   4.337   4.388   4.340   4.424   4.428   4.132   4.178   4.204   4.082   4.018   3.940   3.952   3.995   3.891   3.881   3.771   3.787   3.907   4.047   4.147   4.093   4.041   4.110   4.204   4.267   4.351   4.384   4.269   4.193   4.307   4.347   4.239   4.212   4.242   4.303   4.262   4.205   4.226   4.038   3.944   4.029   3.903   3.892   3.788   3.849   3.824   3.623   3.692   3.892   3.960   3.952
    65.00    4.054   4.204   4.288   4.388   4.523   4.543   4.423   4.131   4.105   4.247   4.143   4.090   3.992   4.055   3.953   3.851   3.802   3.814   3.789   3.862   4.070   4.130   3.956   3.928   4.058   4.125   4.273   4.282   4.275   4.257   4.282   4.354   4.309   4.306   4.185   4.187   4.305   4.265   4.163   4.142   4.047   3.942   3.972   3.948   3.908   3.882   3.772   3.767   3.642   3.651   3.679   3.743   3.998
    60.00    4.146   4.292   4.211   4.389   4.381   4.334   4.409   4.238   4.259   4.243   4.157   4.003   4.120   4.044   4.005   4.049   3.879   3.783   3.778   3.897   4.038   4.238   4.221   4.078   4.023   4.107   4.163   4.279   4.092   4.189   4.339   4.419   4.434   4.320   4.192   4.098   4.064   4.061   4.091   4.138   4.195   4.057   4.015   3.936   3.875   3.783   3.742   3.636   3.719   3.724   3.734   3.803   3.940
    55.00    4.271   4.214   4.207   4.326   4.341   4.206   4.256   4.272   4.187   4.045   4.184   4.091   4.140   4.179   3.924   3.965   3.844   3.800   3.719   3.852   3.887   4.094   4.125   4.175   4.121   4.152   4.214   4.249   4.222   4.209   4.338   4.356   4.485   4.279   4.154   4.179   4.060   4.024   4.130   4.244   4.173   4.216   3.965   3.860   3.819   3.793   3.678   3.541   3.616   3.658   3.863   3.933   3.880
    50.00    4.205   4.184   4.265   4.220   4.237   4.335   4.202   4.338   4.213   4.086   4.091   4.198   4.182   4.241   4.062   3.908   3.659   3.661   3.669   3.762   3.930   4.031   4.180   4.164   4.174   4.250   4.293   4.472   4.330   4.296   4.365   4.416   4.360   4.412   4.328   4.261   4.129   4.035   4.133   4.133   4.145   3.967   3.883   3.883   3.761   3.842   3.678   3.648   3.615   3.624   3.684   3.850   3.917
    45.00    4.311   4.217   4.235   4.246   4.161   4.165   4.285   4.327   4.166   4.121   4.106   4.187   4.178   4.169   4.119   4.015   3.754   3.835   3.904   3.834   4.018   3.995   4.048   4.090   4.064   4.195   4.260   4.349   4.441   4.281   4.281   4.374   4.338   4.403   4.387   4.430   4.287   4.191   4.134   4.165   3.963   3.921   3.932   3.708   3.725   3.798   3.702   3.681   3.723   3.487   3.659   3.762   3.881
    40.00    4.362   4.452   4.378   4.225   4.183   3.971   4.173   4.217   4.249   4.218   4.140   4.098   4.115   4.223   4.176   4.152   3.937   3.884   3.959   3.865   4.070   4.061   4.046   4.191   4.132   4.090   4.221   4.350   4.327   4.209   4.153   4.198   4.300   4.381   4.426   4.480   4.437   4.170   4.081   4.013   4.022   3.898   3.779   3.814   3.858   3.781   3.730   3.811   3.712   3.605   3.680   3.776   3.757
    35.00    4.312   4.256   4.285   4.222   4.110   3.981   4.122   4.185   4.158   4.149   4.089   4.002   4.111   4.170   4.278   4.180   4.042   4.080   4.057   4.050   3.979   4.079   4.302   4.274   4.358   4.346   4.176   4.311   4.125   4.100   4.072   4.097   4.363   4.376   4.468   4.353   4.427   4.286   4.170   4.028   3.938   4.007   3.865   3.852   3.887   3.738   3.729   3.722   3.709   3.644   3.709   3.725   3.766
    30.00    4.232   4.218   4.297   4.199   4.103   4.077   4.064   4.123   4.186   4.137   4.176   4.039   4.082   4.159   4.164   4.137   4.153   4.204   4.114   4.097   3.934   4.004   4.114   4.117   4.229   4.301   4.225   4.145   4.071   4.062   4.004   4.050   4.183   4.223   4.400   4.482   4.440   4.360   4.114   4.016   3.909   3.936   4.043   3.857   3.876   3.829   3.703   3.667   3.682   3.729   3.740   3.683   3.675
    25.00    4.318   4.248   4.214   4.094   4.045   3.955   4.044   4.114   4.127   4.019   3.965   4.042   4.015   4.117   4.258   4.275   4.145   4.156   4.084   4.067   4.149   4.097   4.168   4.009   4.149   4.209   4.153   3.965   3.899   3.939   3.978   3.972   4.102   4.310   4.315   4.420   4.207   4.225   4.043   3.943   3.928   3.932   3.955   3.750   3.779   3.848   3.824   3.712   3.690   3.722   3.677   3.629   3.643
    20.00    4.229   4.155   4.103   4.207   4.076   4.022   4.075   4.130   4.216   4.098   4.108   4.067   4.135   4.158   4.332   4.256   4.211   4.114   4.090   4.146   4.195   4.332   4.250   4.128   4.212   4.196   4.026   3.972   4.013   3.964   4.017   3.976   4.041   4.167   4.401   4.303   4.154   4.073   4.045   4.097   3.890   3.874   3.860   3.842   3.842   3.835   3.689   3.756   3.689   3.680   3.698   3.697   3.781
    15.00    4.175   4.043   4.120   4.146   4.048   4.038   4.016   4.109   4.206   4.120   4.117   4.161   4.110   4.163   4.255   4.266   4.163   4.232   4.238   4.115   4.239   4.205   4.292   4.048   3.937   3.978   3.981   4.096   4.089   3.983   4.141   3.926   4.090   4.179   4.194   4.296   4.107   4.018   3.933   4.021   4.024   3.789   3.864   3.882   3.857   3.738   3.767   3.739   3.763   3.747   3.718   3.774   3.640
    10.00    4.037   3.962   4.147   4.121   4.037   4.053   4.042   4.105   4.093   4.166   4.195   4.257   4.119   4.257   4.221   4.194   4.124   4.183   4.170   4.059   4.168   4.014   4.111   4.130   4.018   3.926   4.043   4.011   4.017   4.086   4.092   4.162   4.073   4.183   4.092   4.180   4.130   4.039   3.851   3.894   3.863   3.716   3.866   3.829   3.781   3.876   3.748   3.723   3.686   3.731   3.719   3.717   3.735

   Height   Standard deviation at grid points for the v component:
   270.00    3.233   3.233   3.233   3.233   3.233   3.233   3.233   3.233   3.233   3.233   3.233   3.233   3.233   3.233   3.233   3.233   3.233   3.233   3.233   3.233   3.233   3.233   3.233   3.233   3.233   3.233   3.233   3.233   3.233   3.233   3.233   3.233   3.233   3.233   3.233   3.233   3.233   3.233   3.233   3.233   3.233   3.233   3.233   3.233   3.233   3.233   3.233   3.233   3.233   3.233   3.233   3.233   3.233
   265.00    3.233   3.233   3.233   3.233   3.233   3.233   3.233   3.233   3.233   3.233   3.233   3.233   3.233   3.233   3.233   3.233   3.233   3.233   3.233   3.233   3.233   3.233   3.233   3.233   3.233   3.233   3.233   3.233   3.233   3.233   3.233   3.233   3.233   3.233   3.233   3.233   3.233   3.233   3.233   3.233   3.233   3.233   3.233   3.233   3.233   3.233   3.233   3.233   3.233   3.233   3.233   3.233   3.233
   260.00    3.233   3.233   3.233   3.233   3.233   3.233   3.233   3.233   3.233   3.233   3.233   3.233   3.233   3.233   3.233   3.233   3.233   3.233   3.233   3.233   3.233   3.233   3.233   3.233   3.233   3.233   3.233   3.233   3.233   3.233   3.233   3.233   3.233   3.233   3.233   3.233   3.233   3.233   3.233   3.233   3.233   3.233   3.233   3.233   3.233   3.233   3.233   3.233   3.233   3.233   3.233   3.233   3.233
   255.00    3.233   3.233   3.233   3.233   3.233   3.233   3.233   3.233   3.233   3.233   3.233   3.233   3.233   3.233   3.233   3.233   3.233   3.233   3.233   3.233   3.233   3.233   3.233   3.233   3.233   3.233   3.233   3.233   3.233   3.233   3.233   3.233   3.233   3.233   3.233   3.233   3.233   3.233   3.233   3.233   3.233   3.233   3.233   3.233   3.233   3.233   3.233   3.233   3.233   3.233   3.233   3.233   3.233
   250.00    3.233   3.233   3.233   3.233   3.233   3.233   3.233   3.233   3.233   3.233   3.233   3.233   3.233   3.233   3.233   3.233   3.233   3.233   3.233   3.233   3.233   3.233   3.233   3.233   3.233   3.233   3.233   3.233   3.233   3.233   3.233   3.233   3.233   3.233   3.233   3.233   3.233   3.233   3.233   3.233   3.233   3.233   3.233   3.233   3.233   3.233   3.233   3.233   3.233   3.233   3.233   3.233   3.233
   245.00    3.233   3.233   3.233   3.233   3.233   3.233   3.233   3.233   3.233   3.233   3.233   3.233   3.233   3.233   3.233   3.233   3.233   3.233   3.233   3.233   3.233   3.233   3.233   3.233   3.233   3.233   3.233   3.233   3.233   3.233   3.233   3.233   3.233   3.233   3.233   3.233   3.233   3.233   3.233   3.233   3.233   3.233   3.233   3.233   3.233   3.233   3.233   3.233   3.233   3.233   3.233   3.233   3.233
   240.00    3.233   3.233   3.233   3.233   3.233   3.233   3.233   3.233   3.233   3.233   3.233   3.233   3.233   3.233   3.233   3.233   3.233   3.233   3.233   3.233   3.233   3.233   3.233   3.233   3.233   3.233   3.233   3.233   3.233   3.233   3.233   3.233   3.233   3.233   3.233   3.233   3.233   3.233   3.233   3.233   3.233   3.233   3.233   3.233   3.233   3.233   3.233   3.233   3.233   3.233   3.233   3.233   3.233
   235.00    3.233   3.233   3.233   3.233   3.233   3.233   3.233   3.233   3.233   3.233   3.233   3.233   3.233   3.233   3.233   3.233   3.233   3.233   3.233   3.233   3.233   3.233   3.233   3.233   3.233   3.233   3.233   3.233   3.233   3.233   3.233   3.233   3.233   3.233   3.233   3.233   3.233   3.233   3.233   3.233   3.233   3.233   3.233   3.233   3.233   3.233   3.233   3.233   3.233   3.233   3.233   3.233   3.233
   230.00    3.233   3.233   3.233   3.233   3.233   3.233   3.233   3.233   3.233   3.233   3.233   3.233   3.233   3.233   3.233   3.233   3.233   3.233   3.233   3.233   3.233   3.233   3.233   3.233   3.233   3.233   3.233   3.233   3.233   3.233   3.233   3.233   3.233   3.233   3.233   3.233   3.233   3.233   3.233   3.233   3.233   3.233   3.233   3.233   3.233   3.233   3.233   3.233   3.233   3.233   3.233   3.233   3.233
   225.00    3.233   3.233   3.233   3.233   3.233   3.233   3.233   3.233   3.233   3.233   3.233   3.233   3.233   3.233   3.233   3.233   3.233   3.233   3.233   3.233   3.233   3.233   3.233   3.233   3.233   3.233   3.233   3.233   3.233   3.233   3.233   3.233   3.233   3.233   3.233   3.233   3.233   3.233   3.233   3.233   3.233   3.233   3.233   3.233   3.233   3.233   3.233   3.233   3.233   3.233   3.233   3.233   3.233
   220.00    3.233   3.233   3.233   3.233   3.233   3.233   3.233   3.233   3.233   3.233   3.233   3.233   3.233   3.233   3.233   3.233   3.233   3.233   3.233   3.233   3.233   3.233   3.233   3.233   3.233   3.233   3.233   3.233   3.233   3.233   3.233   3.233   3.233   3.233   3.233   3.233   3.233   3.233   3.233   3.233   3.233   3.233   3.233   3.233   3.233   3.233   3.233   3.233   3.233   3.233   3.233   3.233   3.233
   215.00    3.233   3.233   3.233   3.233   3.233   3.233   3.233   3.233   3.233   3.233   3.233   3.233   3.233   3.233   3.233   3.233   3.233   3.233   3.233   3.233   3.233   3.233   3.233   3.233   3.233   3.233   3.233   3.233   3.233   3.233   3.233   3.233   3.233   3.233   3.233   3.233   3.233   3.233   3.233   3.233   3.233   3.233   3.233   3.233   3.233   3.233   3.233   3.233   3.233   3.233   3.233   3.233   3.233
   210.00    3.233   3.233   3.233   3.233   3.233   3.233   3.233   3.233   3.233   3.233   3.233   3.233   3.233   3.233   3.233   3.233   3.233   3.233   3.233   3.233   3.233   3.233   3.233   3.233   3.233   3.233   3.233   3.233   3.233   3.233   3.233   3.233   3.233   3.233   3.233   3.233   3.233   3.233   3.233   3.233   3.233   3.233   3.233   3.233   3.233   3.233   3.233   3.233   3.233   3.233   3.233   3.233   3.233
   205.00    3.233   3.233   3.233   3.233   3.233   3.233   3.233   3.233   3.233   3.233   3.233   3.233   3.233   3.233   3.233   3.233   3.233   3.233   3.233   3.233   3.233   3.233   3.233   3.233   3.233   3.233   3.233   3.233   3.233   3.233   3.233   3.233   3.233   3.233   3.233   3.233   3.233   3.233   3.233   3.233   3.233   3.233   3.233   3.233   3.233   3.233   3.233   3.233   3.233   3.233   3.233   3.233   3.233
   200.00    3.233   3.233   3.233   3.233   3.233   3.233   3.233   3.233   3.233   3.233   3.233   3.233   3.233   3.233   3.233   3.233   3.233   3.233   3.233   3.233   3.233   3.233   3.233   3.233   3.233   3.233   3.233   3.233   3.233   3.233   3.233   3.233   3.233   3.233   3.233   3.233   3.233   3.233   3.233   3.233   3.233   3.233   3.233   3.233   3.233   3.233   3.233   3.233   3.233   3.233   3.233   3.233   3.233
   195.00    3.233   3.233   3.233   3.233   3.233   3.233   3.233   3.233   3.233   3.233   3.233   3.233   3.233   3.233   3.233   3.233   3.233   3.233   3.233   3.233   3.233   3.233   3.233   3.233   3.233   3.233   3.233   3.233   3.233   3.233   3.233   3.233   3.233   3.233   3.233   3.233   3.233   3.233   3.233   3.233   3.233   3.233   3.233   3.233   3.233   3.233   3.233   3.233   3.233   3.233   3.233   3.233   3.233
   190.00    3.233   3.233   3.233   3.233   3.233   3.233   3.233   3.233   3.233   3.233   3.233   3.233   3.233   3.233   3.233   3.233   3.233   3.233   3.233   3.233   3.233   3.233   3.233   3.233   3.233   3.233   3.233   3.233   3.233   3.233   3.233   3.233   3.233   3.233   3.233   3.233   3.233   3.233   3.233   3.233   3.233   3.233   3.233   3.233   3.233   3.233   3.233   3.233   3.233   3.233   3.233   3.233   3.233
   185.00    3.233   3.233   3.233   3.233   3.233   3.233   3.233   3.233   3.233   3.233   3.233   3.233   3.233   3.233   3.233   3.233   3.233   3.233   3.233   3.233   3.233   3.233   3.233   3.233   3.233   3.233   3.233   3.233   3.233   3.233   3.233   3.233   3.233   3.233   3.233   3.233   3.233   3.233   3.233   3.233   3.233   3.233   3.233   3.233   3.233   3.233   3.233   3.233   3.233   3.233   3.233   3.233   3.233
   180.00    3.233   3.233   3.233   3.233   3.233   3.233   3.233   3.233   3.233   3.233   3.233   3.233   3.233   3.233   3.233   3.233   3.233   3.233   3.233   3.233   3.233   3.233   3.233   3.233   3.233   3.233   3.233   3.233   3.233   3.233   3.233   3.233   3.233   3.233   3.233   3.233   3.233   3.233   3.233   3.233   3.233   3.233   3.233   3.233   3.233   3.233   3.233   3.233   3.233   3.233   3.233   3.233   3.233
   175.00    3.233   3.233   3.233   3.233   3.233   3.233   3.233   3.233   3.233   3.233   3.233   3.233   3.233   3.233   3.233   3.233   3.233   3.233   3.233   3.233   3.233   3.233   3.233   3.233   3.233   3.233   3.233   3.233   3.233   3.233   3.233   3.233   3.233   3.233   3.233   3.233   3.233   3.233   3.233   3.233   3.233   3.233   3.233   3.233   3.233   3.233   3.233   3.233   3.233   3.233   3.233   3.233   3.233
   170.00    3.233   3.233   3.233   3.233   3.233   3.233   3.233   3.233   3.233   3.233   3.233   3.233   3.233   3.233   3.233   3.233   3.233   3.233   3.233   3.233   3.233   3.233   3.233   3.233   3.233   3.233   3.233   3.233   3.233   3.233   3.233   3.233   3.233   3.233   3.233   3.233   3.233   3.233   3.233   3.233   3.233   3.233   3.233   3.233   3.233   3.233   3.233   3.233   3.233   3.233   3.233   3.233   3.233
   165.00    3.233   3.233   3.233   3.233   3.233   3.233   3.233   3.233   3.233   3.233   3.233   3.233   3.233   3.233   3.233   3.233   3.233   3.233   3.233   3.233   3.233   3.233   3.233   3.233   3.233   3.233   3.233   3.233   3.233   3.233   3.233   3.233   3.233   3.233   3.233   3.233   3.233   3.233   3.233   3.233   3.233   3.233   3.233   3.233   3.233   3.233   3.233   3.233   3.233   3.233   3.233   3.233   3.233
   160.00    3.233   3.233   3.233   3.233   3.233   3.233   3.233   3.233   3.233   3.233   3.233   3.233   3.233   3.233   3.233   3.233   3.233   3.233   3.233   3.233   3.233   3.233   3.233   3.233   3.233   3.233   3.233   3.233   3.233   3.233   3.233   3.233   3.233   3.233   3.233   3.233   3.233   3.233   3.233   3.233   3.233   3.233   3.233   3.233   3.233   3.233   3.233   3.233   3.233   3.233   3.233   3.233   3.233
   155.00    3.233   3.233   3.233   3.233   3.233   3.233   3.233   3.233   3.233   3.233   3.233   3.233   3.233   3.233   3.233   3.233   3.233   3.233   3.233   3.233   3.233   3.233   3.233   3.233   3.233   3.233   3.233   3.233   3.233   3.233   3.233   3.233   3.233   3.233   3.233   3.233   3.233   3.233   3.233   3.233   3.233   3.233   3.233   3.233   3.233   3.233   3.233   3.233   3.233   3.233   3.233   3.233   3.233
   150.00    3.233   3.233   3.233   3.233   3.233   3.233   3.233   3.233   3.233   3.233   3.233   3.233   3.233   3.233   3.233   3.233   3.233   3.233   3.233   3.233   3.233   3.233   3.233   3.233   3.233   3.233   3.233   3.233   3.233   3.233   3.233   3.233   3.233   3.233   3.233   3.233   3.233   3.233   3.233   3.233   3.233   3.233   3.233   3.233   3.233   3.233   3.233   3.233   3.233   3.233   3.233   3.233   3.233
   145.00    3.233   3.233   3.233   3.233   3.233   3.233   3.233   3.233   3.233   3.233   3.233   3.233   3.233   3.233   3.233   3.233   3.233   3.233   3.233   3.233   3.233   3.233   3.233   3.233   3.233   3.233   3.233   3.233   3.233   3.233   3.233   3.233   3.233   3.233   3.233   3.233   3.233   3.233   3.233   3.233   3.233   3.233   3.233   3.233   3.233   3.233   3.233   3.233   3.233   3.233   3.233   3.233   3.233
   140.00    3.233   3.233   3.233   3.233   3.233   3.233   3.233   3.233   3.233   3.233   3.233   3.233   3.233   3.233   3.233   3.233   3.233   3.233   3.233   3.233   3.233   3.233   3.233   3.233   3.233   3.233   3.233   3.233   3.233   3.233   3.233   3.233   3.233   3.233   3.233   3.233   3.233   3.233   3.233   3.233   3.233   3.233   3.233   3.233   3.233   3.233   3.233   3.233   3.233   3.233   3.233   3.233   3.233
   135.00    3.233   3.233   3.233   3.233   3.233   3.233   3.233   3.233   3.233   3.233   3.233   3.233   3.233   3.233   3.233   3.233   3.233   3.233   3.233   3.233   3.233   3.233   3.233   3.233   3.233   3.233   3.233   3.233   3.233   3.233   3.233   3.233   3.233   3.233   3.233   3.233   3.233   3.233   3.233   3.233   3.233   3.233   3.233   3.233   3.233   3.233   3.233   3.233   3.233   3.233   3.233   3.233   3.233
   130.00    3.233   3.233   3.233   3.233   3.233   3.233   3.233   3.233   3.233   3.233   3.233   3.233   3.233   3.233   3.233   3.233   3.233   3.233   3.233   3.233   3.233   3.233   3.233   3.233   3.233   3.233   3.233   3.233   3.233   3.233   3.233   3.233   3.233   3.233   3.233   3.233   3.233   3.233   3.233   3.233   3.233   3.233   3.233   3.233   3.233   3.233   3.233   3.233   3.233   3.233   3.233   3.233   3.233
   125.00    3.233   3.233   3.233   3.233   3.233   3.233   3.233   3.233   3.233   3.233   3.233   3.233   3.233   3.233   3.233   3.233   3.233   3.233   3.233   3.233   3.233   3.233   3.233   3.233   3.233   3.233   3.233   3.233   3.233   3.233   3.233   3.233   3.233   3.233   3.233   3.233   3.233   3.233   3.233   3.233   3.233   3.233   3.233   3.233   3.233   3.233   3.233   3.233   3.233   3.233   3.233   3.233   3.233
   120.00    3.233   3.233   3.233   3.233   3.233   3.233   3.233   3.233   3.233   3.233   3.233   3.233   3.233   3.233   3.233   3.233   3.233   3.233   3.233   3.233   3.233   3.233   3.233   3.233   3.233   3.233   3.233   3.233   3.233   3.233   3.233   3.233   3.233   3.233   3.233   3.233   3.233   3.233   3.233   3.233   3.233   3.233   3.233   3.233   3.233   3.233   3.233   3.233   3.233   3.233   3.233   3.233   3.233
   115.00    3.233   3.233   3.233   3.233   3.233   3.233   3.233   3.233   3.233   3.233   3.233   3.233   3.233   3.233   3.233   3.233   3.233   3.233   3.233   3.233   3.233   3.233   3.233   3.233   3.233   3.233   3.233   3.233   3.233   3.233   3.233   3.233   3.233   3.233   3.233   3.233   3.233   3.233   3.233   3.233   3.233   3.233   3.233   3.233   3.233   3.233   3.233   3.233   3.233   3.233   3.233   3.233   3.233
   110.00    3.233   3.233   3.233   3.233   3.233   3.233   3.233   3.233   3.233   3.233   3.233   3.233   3.233   3.233   3.233   3.233   3.233   3.233   3.233   3.233   3.233   3.233   3.233   3.233   3.233   3.233   3.233   3.233   3.233   3.233   3.233   3.233   3.233   3.233   3.233   3.233   3.233   3.233   3.233   3.233   3.233   3.233   3.233   3.233   3.233   3.233   3.233   3.233   3.233   3.233   3.233   3.233   3.233
   105.00    3.233   3.233   3.233   3.233   3.233   3.233   3.233   3.233   3.233   3.233   3.233   3.233   3.233   3.233   3.233   3.233   3.233   3.233   3.233   3.233   3.233   3.233   3.233   3.233   3.233   3.233   3.233   3.233   3.233   3.233   3.233   3.233   3.233   3.233   3.233   3.233   3.233   3.233   3.233   3.233   3.233   3.233   3.233   3.233   3.233   3.233   3.233   3.233   3.233   3.233   3.233   3.233   3.233
   100.00    3.233   3.233   3.233   3.233   3.233   3.233   3.233   3.233   3.233   3.233   3.233   3.233   3.233   3.233   3.233   3.233   3.233   3.233   3.233   3.233   3.233   3.233   3.233   3.233   3.233   3.233   3.233   3.233   3.233   3.233   3.233   3.233   3.233   3.233   3.233   3.233   3.233   3.233   3.233   3.233   3.233   3.233   3.233   3.233   3.233   3.233   3.233   3.233   3.233   3.233   3.233   3.233   3.233
    95.00    3.233   3.233   3.233   3.233   3.233   3.233   3.233   3.233   3.233   3.233   3.233   3.233   3.233   3.233   3.233   3.233   3.233   3.233   3.233   3.233   3.233   3.233   3.233   3.233   3.233   3.233   3.233   3.233   3.233   3.233   3.233   3.233   3.233   3.233   3.233   3.233   3.233   3.233   3.233   3.233   3.233   3.233   3.233   3.233   3.233   3.233   3.233   3.233   3.233   3.233   3.233   3.233   3.233
    90.00    3.233   3.233   3.233   3.233   3.233   3.233   3.233   3.233   3.233   3.233   3.233   3.233   3.233   3.233   3.233   3.233   3.233   3.233   3.233   3.233   3.233   3.233   3.233   3.233   3.233   3.233   3.233   3.233   3.233   3.233   3.233   3.233   3.233   3.233   3.233   3.233   3.233   3.233   3.233   3.233   3.233   3.233   3.233   3.233   3.233   3.233   3.233   3.233   3.233   3.233   3.233   3.233   3.233
    85.00    3.233   3.233   3.233   3.233   3.233   3.233   3.233   3.233   3.233   3.233   3.233   3.233   3.233   3.233   3.233   3.233   3.233   3.233   3.233   3.233   3.233   3.233   3.233   3.233   3.233   3.233   3.233   3.233   3.233   3.233   3.233   3.233   3.233   3.233   3.233   3.233   3.233   3.233   3.233   3.233   3.233   3.233   3.233   3.233   3.233   3.233   3.233   3.233   3.233   3.233   3.233   3.233   3.233
    80.00    3.233   3.233   3.233   3.233   3.233   3.233   3.233   3.233   3.233   3.233   3.233   3.233   3.233   3.233   3.233   3.233   3.233   3.233   3.233   3.233   3.233   3.233   3.233   3.233   3.233   3.233   3.233   3.233   3.233   3.233   3.233   3.233   3.233   3.233   3.233   3.233   3.233   3.233   3.233   3.233   3.233   3.233   3.233   3.233   3.233   3.233   3.233   3.233   3.233   3.233   3.233   3.233   3.233
    75.00    3.233   3.233   3.233   3.233   3.233   3.233   3.233   3.233   3.233   3.233   3.233   3.233   3.233   3.233   3.233   3.233   3.233   3.233   3.233   3.233   3.233   3.233   3.233   3.233   3.233   3.233   3.233   3.233   3.233   3.233   3.233   3.233   3.233   3.233   3.233   3.233   3.233   3.233   3.233   3.233   3.233   3.233   3.233   3.233   3.233   3.233   3.233   3.233   3.233   3.233   3.233   3.233   3.233
    70.00    3.233   3.233   3.233   3.233   3.233   3.233   3.233   3.233   3.233   3.233   3.233   3.233   3.233   3.233   3.233   3.233   3.233   3.233   3.233   3.233   3.233   3.233   3.233   3.233   3.233   3.233   3.233   3.233   3.233   3.233   3.233   3.233   3.233   3.233   3.233   3.233   3.233   3.233   3.233   3.233   3.233   3.233   3.233   3.233   3.233   3.233   3.233   3.233   3.233   3.233   3.233   3.233   3.233
    65.00    3.233   3.233   3.233   3.233   3.233   3.233   3.233   3.233   3.233   3.233   3.233   3.233   3.233   3.233   3.233   3.233   3.233   3.233   3.233   3.233   3.233   3.233   3.233   3.233   3.233   3.233   3.233   3.233   3.233   3.233   3.233   3.233   3.233   3.233   3.233   3.233   3.233   3.233   3.233   3.233   3.233   3.233   3.233   3.233   3.233   3.233   3.233   3.233   3.233   3.233   3.233   3.233   3.233
    60.00    3.233   3.233   3.233   3.233   3.233   3.233   3.233   3.233   3.233   3.233   3.233   3.233   3.233   3.233   3.233   3.233   3.233   3.233   3.233   3.233   3.233   3.233   3.233   3.233   3.233   3.233   3.233   3.233   3.233   3.233   3.233   3.233   3.233   3.233   3.233   3.233   3.233   3.233   3.233   3.233   3.233   3.233   3.233   3.233   3.233   3.233   3.233   3.233   3.233   3.233   3.233   3.233   3.233
    55.00    3.233   3.233   3.233   3.233   3.233   3.233   3.233   3.233   3.233   3.233   3.233   3.233   3.233   3.233   3.233   3.233   3.233   3.233   3.233   3.233   3.233   3.233   3.233   3.233   3.233   3.233   3.233   3.233   3.233   3.233   3.233   3.233   3.233   3.233   3.233   3.233   3.233   3.233   3.233   3.233   3.233   3.233   3.233   3.233   3.233   3.233   3.233   3.233   3.233   3.233   3.233   3.233   3.233
    50.00    3.233   3.233   3.233   3.233   3.233   3.233   3.233   3.233   3.233   3.233   3.233   3.233   3.233   3.233   3.233   3.233   3.233   3.233   3.233   3.233   3.233   3.233   3.233   3.233   3.233   3.233   3.233   3.233   3.233   3.233   3.233   3.233   3.233   3.233   3.233   3.233   3.233   3.233   3.233   3.233   3.233   3.233   3.233   3.233   3.233   3.233   3.233   3.233   3.233   3.233   3.233   3.233   3.233
    45.00    3.233   3.233   3.233   3.233   3.233   3.233   3.233   3.233   3.233   3.233   3.233   3.233   3.233   3.233   3.233   3.233   3.233   3.233   3.233   3.233   3.233   3.233   3.233   3.233   3.233   3.233   3.233   3.233   3.233   3.233   3.233   3.233   3.233   3.233   3.233   3.233   3.233   3.233   3.233   3.233   3.233   3.233   3.233   3.233   3.233   3.233   3.233   3.233   3.233   3.233   3.233   3.233   3.233
    40.00    3.233   3.233   3.233   3.233   3.233   3.233   3.233   3.233   3.233   3.233   3.233   3.233   3.233   3.233   3.233   3.233   3.233   3.233   3.233   3.233   3.233   3.233   3.233   3.233   3.233   3.233   3.233   3.233   3.233   3.233   3.233   3.233   3.233   3.233   3.233   3.233   3.233   3.233   3.233   3.233   3.233   3.233   3.233   3.233   3.233   3.233   3.233   3.233   3.233   3.233   3.233   3.233   3.233
    35.00    3.233   3.233   3.233   3.233   3.233   3.233   3.233   3.233   3.233   3.233   3.233   3.233   3.233   3.233   3.233   3.233   3.233   3.233   3.233   3.233   3.233   3.233   3.233   3.233   3.233   3.233   3.233   3.233   3.233   3.233   3.233   3.233   3.233   3.233   3.233   3.233   3.233   3.233   3.233   3.233   3.233   3.233   3.233   3.233   3.233   3.233   3.233   3.233   3.233   3.233   3.233   3.233   3.233
    30.00    3.233   3.233   3.233   3.233   3.233   3.233   3.233   3.233   3.233   3.233   3.233   3.233   3.233   3.233   3.233   3.233   3.233   3.233   3.233   3.233   3.233   3.233   3.233   3.233   3.233   3.233   3.233   3.233   3.233   3.233   3.233   3.233   3.233   3.233   3.233   3.233   3.233   3.233   3.233   3.233   3.233   3.233   3.233   3.233   3.233   3.233   3.233   3.233   3.233   3.233   3.233   3.233   3.233
    25.00    3.233   3.233   3.233   3.233   3.233   3.233   3.233   3.233   3.233   3.233   3.233   3.233   3.233   3.233   3.233   3.233   3.233   3.233   3.233   3.233   3.233   3.233   3.233   3.233   3.233   3.233   3.233   3.233   3.233   3.233   3.233   3.233   3.233   3.233   3.233   3.233   3.233   3.233   3.233   3.233   3.233   3.233   3.233   3.233   3.233   3.233   3.233   3.233   3.233   3.233   3.233   3.233   3.233
    20.00    3.233   3.233   3.233   3.233   3.233   3.233   3.233   3.233   3.233   3.233   3.233   3.233   3.233   3.233   3.233   3.233   3.233   3.233   3.233   3.233   3.233   3.233   3.233   3.233   3.233   3.233   3.233   3.233   3.233   3.233   3.233   3.233   3.233   3.233   3.233   3.233   3.233   3.233   3.233   3.233   3.233   3.233   3.233   3.233   3.233   3.233   3.233   3.233   3.233   3.233   3.233   3.233   3.233
    15.00    3.233   3.233   3.233   3.233   3.233   3.233   3.233   3.233   3.233   3.233   3.233   3.233   3.233   3.233   3.233   3.233   3.233   3.233   3.233   3.233   3.233   3.233   3.233   3.233   3.233   3.233   3.233   3.233   3.233   3.233   3.233   3.233   3.233   3.233   3.233   3.233   3.233   3.233   3.233   3.233   3.233   3.233   3.233   3.233   3.233   3.233   3.233   3.233   3.233   3.233   3.233   3.233   3.233
    10.00    3.233   3.233   3.233   3.233   3.233   3.233   3.233   3.233   3.233   3.233   3.233   3.233   3.233   3.233   3.233   3.233   3.233   3.233   3.233   3.233   3.233   3.233   3.233   3.233   3.233   3.233   3.233   3.233   3.233   3.233   3.233   3.233   3.233   3.233   3.233   3.233   3.233   3.233   3.233   3.233   3.233   3.233   3.233   3.233   3.233   3.233   3.233   3.233   3.233   3.233   3.233   3.233   3.233

   Height   Standard deviation at grid points for the w component:
   270.00    1.977   1.977   1.977   1.977   1.977   1.977   1.977   1.977   1.977   1.977   1.977   1.977   1.977   1.977   1.977   1.977   1.977   1.977   1.977   1.977   1.977   1.977   1.977   1.977   1.977   1.977   1.977   1.977   1.977   1.977   1.977   1.977   1.977   1.977   1.977   1.977   1.977   1.977   1.977   1.977   1.977   1.977   1.977   1.977   1.977   1.977   1.977   1.977   1.977   1.977   1.977   1.977   1.977
   265.00    1.977   1.977   1.977   1.977   1.977   1.977   1.977   1.977   1.977   1.977   1.977   1.977   1.977   1.977   1.977   1.977   1.977   1.977   1.977   1.977   1.977   1.977   1.977   1.977   1.977   1.977   1.977   1.977   1.977   1.977   1.977   1.977   1.977   1.977   1.977   1.977   1.977   1.977   1.977   1.977   1.977   1.977   1.977   1.977   1.977   1.977   1.977   1.977   1.977   1.977   1.977   1.977   1.977
   260.00    1.977   1.977   1.977   1.977   1.977   1.977   1.977   1.977   1.977   1.977   1.977   1.977   1.977   1.977   1.977   1.977   1.977   1.977   1.977   1.977   1.977   1.977   1.977   1.977   1.977   1.977   1.977   1.977   1.977   1.977   1.977   1.977   1.977   1.977   1.977   1.977   1.977   1.977   1.977   1.977   1.977   1.977   1.977   1.977   1.977   1.977   1.977   1.977   1.977   1.977   1.977   1.977   1.977
   255.00    1.977   1.977   1.977   1.977   1.977   1.977   1.977   1.977   1.977   1.977   1.977   1.977   1.977   1.977   1.977   1.977   1.977   1.977   1.977   1.977   1.977   1.977   1.977   1.977   1.977   1.977   1.977   1.977   1.977   1.977   1.977   1.977   1.977   1.977   1.977   1.977   1.977   1.977   1.977   1.977   1.977   1.977   1.977   1.977   1.977   1.977   1.977   1.977   1.977   1.977   1.977   1.977   1.977
   250.00    1.977   1.977   1.977   1.977   1.977   1.977   1.977   1.977   1.977   1.977   1.977   1.977   1.977   1.977   1.977   1.977   1.977   1.977   1.977   1.977   1.977   1.977   1.977   1.977   1.977   1.977   1.977   1.977   1.977   1.977   1.977   1.977   1.977   1.977   1.977   1.977   1.977   1.977   1.977   1.977   1.977   1.977   1.977   1.977   1.977   1.977   1.977   1.977   1.977   1.977   1.977   1.977   1.977
   245.00    1.977   1.977   1.977   1.977   1.977   1.977   1.977   1.977   1.977   1.977   1.977   1.977   1.977   1.977   1.977   1.977   1.977   1.977   1.977   1.977   1.977   1.977   1.977   1.977   1.977   1.977   1.977   1.977   1.977   1.977   1.977   1.977   1.977   1.977   1.977   1.977   1.977   1.977   1.977   1.977   1.977   1.977   1.977   1.977   1.977   1.977   1.977   1.977   1.977   1.977   1.977   1.977   1.977
   240.00    1.977   1.977   1.977   1.977   1.977   1.977   1.977   1.977   1.977   1.977   1.977   1.977   1.977   1.977   1.977   1.977   1.977   1.977   1.977   1.977   1.977   1.977   1.977   1.977   1.977   1.977   1.977   1.977   1.977   1.977   1.977   1.977   1.977   1.977   1.977   1.977   1.977   1.977   1.977   1.977   1.977   1.977   1.977   1.977   1.977   1.977   1.977   1.977   1.977   1.977   1.977   1.977   1.977
   235.00    1.977   1.977   1.977   1.977   1.977   1.977   1.977   1.977   1.977   1.977   1.977   1.977   1.977   1.977   1.977   1.977   1.977   1.977   1.977   1.977   1.977   1.977   1.977   1.977   1.977   1.977   1.977   1.977   1.977   1.977   1.977   1.977   1.977   1.977   1.977   1.977   1.977   1.977   1.977   1.977   1.977   1.977   1.977   1.977   1.977   1.977   1.977   1.977   1.977   1.977   1.977   1.977   1.977
   230.00    1.977   1.977   1.977   1.977   1.977   1.977   1.977   1.977   1.977   1.977   1.977   1.977   1.977   1.977   1.977   1.977   1.977   1.977   1.977   1.977   1.977   1.977   1.977   1.977   1.977   1.977   1.977   1.977   1.977   1.977   1.977   1.977   1.977   1.977   1.977   1.977   1.977   1.977   1.977   1.977   1.977   1.977   1.977   1.977   1.977   1.977   1.977   1.977   1.977   1.977   1.977   1.977   1.977
   225.00    1.977   1.977   1.977   1.977   1.977   1.977   1.977   1.977   1.977   1.977   1.977   1.977   1.977   1.977   1.977   1.977   1.977   1.977   1.977   1.977   1.977   1.977   1.977   1.977   1.977   1.977   1.977   1.977   1.977   1.977   1.977   1.977   1.977   1.977   1.977   1.977   1.977   1.977   1.977   1.977   1.977   1.977   1.977   1.977   1.977   1.977   1.977   1.977   1.977   1.977   1.977   1.977   1.977
   220.00    1.977   1.977   1.977   1.977   1.977   1.977   1.977   1.977   1.977   1.977   1.977   1.977   1.977   1.977   1.977   1.977   1.977   1.977   1.977   1.977   1.977   1.977   1.977   1.977   1.977   1.977   1.977   1.977   1.977   1.977   1.977   1.977   1.977   1.977   1.977   1.977   1.977   1.977   1.977   1.977   1.977   1.977   1.977   1.977   1.977   1.977   1.977   1.977   1.977   1.977   1.977   1.977   1.977
   215.00    1.977   1.977   1.977   1.977   1.977   1.977   1.977   1.977   1.977   1.977   1.977   1.977   1.977   1.977   1.977   1.977   1.977   1.977   1.977   1.977   1.977   1.977   1.977   1.977   1.977   1.977   1.977   1.977   1.977   1.977   1.977   1.977   1.977   1.977   1.977   1.977   1.977   1.977   1.977   1.977   1.977   1.977   1.977   1.977   1.977   1.977   1.977   1.977   1.977   1.977   1.977   1.977   1.977
   210.00    1.977   1.977   1.977   1.977   1.977   1.977   1.977   1.977   1.977   1.977   1.977   1.977   1.977   1.977   1.977   1.977   1.977   1.977   1.977   1.977   1.977   1.977   1.977   1.977   1.977   1.977   1.977   1.977   1.977   1.977   1.977   1.977   1.977   1.977   1.977   1.977   1.977   1.977   1.977   1.977   1.977   1.977   1.977   1.977   1.977   1.977   1.977   1.977   1.977   1.977   1.977   1.977   1.977
   205.00    1.977   1.977   1.977   1.977   1.977   1.977   1.977   1.977   1.977   1.977   1.977   1.977   1.977   1.977   1.977   1.977   1.977   1.977   1.977   1.977   1.977   1.977   1.977   1.977   1.977   1.977   1.977   1.977   1.977   1.977   1.977   1.977   1.977   1.977   1.977   1.977   1.977   1.977   1.977   1.977   1.977   1.977   1.977   1.977   1.977   1.977   1.977   1.977   1.977   1.977   1.977   1.977   1.977
   200.00    1.977   1.977   1.977   1.977   1.977   1.977   1.977   1.977   1.977   1.977   1.977   1.977   1.977   1.977   1.977   1.977   1.977   1.977   1.977   1.977   1.977   1.977   1.977   1.977   1.977   1.977   1.977   1.977   1.977   1.977   1.977   1.977   1.977   1.977   1.977   1.977   1.977   1.977   1.977   1.977   1.977   1.977   1.977   1.977   1.977   1.977   1.977   1.977   1.977   1.977   1.977   1.977   1.977
   195.00    1.977   1.977   1.977   1.977   1.977   1.977   1.977   1.977   1.977   1.977   1.977   1.977   1.977   1.977   1.977   1.977   1.977   1.977   1.977   1.977   1.977   1.977   1.977   1.977   1.977   1.977   1.977   1.977   1.977   1.977   1.977   1.977   1.977   1.977   1.977   1.977   1.977   1.977   1.977   1.977   1.977   1.977   1.977   1.977   1.977   1.977   1.977   1.977   1.977   1.977   1.977   1.977   1.977
   190.00    1.977   1.977   1.977   1.977   1.977   1.977   1.977   1.977   1.977   1.977   1.977   1.977   1.977   1.977   1.977   1.977   1.977   1.977   1.977   1.977   1.977   1.977   1.977   1.977   1.977   1.977   1.977   1.977   1.977   1.977   1.977   1.977   1.977   1.977   1.977   1.977   1.977   1.977   1.977   1.977   1.977   1.977   1.977   1.977   1.977   1.977   1.977   1.977   1.977   1.977   1.977   1.977   1.977
   185.00    1.977   1.977   1.977   1.977   1.977   1.977   1.977   1.977   1.977   1.977   1.977   1.977   1.977   1.977   1.977   1.977   1.977   1.977   1.977   1.977   1.977   1.977   1.977   1.977   1.977   1.977   1.977   1.977   1.977   1.977   1.977   1.977   1.977   1.977   1.977   1.977   1.977   1.977   1.977   1.977   1.977   1.977   1.977   1.977   1.977   1.977   1.977   1.977   1.977   1.977   1.977   1.977   1.977
   180.00    1.977   1.977   1.977   1.977   1.977   1.977   1.977   1.977   1.977   1.977   1.977   1.977   1.977   1.977   1.977   1.977   1.977   1.977   1.977   1.977   1.977   1.977   1.977   1.977   1.977   1.977   1.977   1.977   1.977   1.977   1.977   1.977   1.977   1.977   1.977   1.977   1.977   1.977   1.977   1.977   1.977   1.977   1.977   1.977   1.977   1.977   1.977   1.977   1.977   1.977   1.977   1.977   1.977
   175.00    1.977   1.977   1.977   1.977   1.977   1.977   1.977   1.977   1.977   1.977   1.977   1.977   1.977   1.977   1.977   1.977   1.977   1.977   1.977   1.977   1.977   1.977   1.977   1.977   1.977   1.977   1.977   1.977   1.977   1.977   1.977   1.977   1.977   1.977   1.977   1.977   1.977   1.977   1.977   1.977   1.977   1.977   1.977   1.977   1.977   1.977   1.977   1.977   1.977   1.977   1.977   1.977   1.977
   170.00    1.977   1.977   1.977   1.977   1.977   1.977   1.977   1.977   1.977   1.977   1.977   1.977   1.977   1.977   1.977   1.977   1.977   1.977   1.977   1.977   1.977   1.977   1.977   1.977   1.977   1.977   1.977   1.977   1.977   1.977   1.977   1.977   1.977   1.977   1.977   1.977   1.977   1.977   1.977   1.977   1.977   1.977   1.977   1.977   1.977   1.977   1.977   1.977   1.977   1.977   1.977   1.977   1.977
   165.00    1.977   1.977   1.977   1.977   1.977   1.977   1.977   1.977   1.977   1.977   1.977   1.977   1.977   1.977   1.977   1.977   1.977   1.977   1.977   1.977   1.977   1.977   1.977   1.977   1.977   1.977   1.977   1.977   1.977   1.977   1.977   1.977   1.977   1.977   1.977   1.977   1.977   1.977   1.977   1.977   1.977   1.977   1.977   1.977   1.977   1.977   1.977   1.977   1.977   1.977   1.977   1.977   1.977
   160.00    1.977   1.977   1.977   1.977   1.977   1.977   1.977   1.977   1.977   1.977   1.977   1.977   1.977   1.977   1.977   1.977   1.977   1.977   1.977   1.977   1.977   1.977   1.977   1.977   1.977   1.977   1.977   1.977   1.977   1.977   1.977   1.977   1.977   1.977   1.977   1.977   1.977   1.977   1.977   1.977   1.977   1.977   1.977   1.977   1.977   1.977   1.977   1.977   1.977   1.977   1.977   1.977   1.977
   155.00    1.977   1.977   1.977   1.977   1.977   1.977   1.977   1.977   1.977   1.977   1.977   1.977   1.977   1.977   1.977   1.977   1.977   1.977   1.977   1.977   1.977   1.977   1.977   1.977   1.977   1.977   1.977   1.977   1.977   1.977   1.977   1.977   1.977   1.977   1.977   1.977   1.977   1.977   1.977   1.977   1.977   1.977   1.977   1.977   1.977   1.977   1.977   1.977   1.977   1.977   1.977   1.977   1.977
   150.00    1.977   1.977   1.977   1.977   1.977   1.977   1.977   1.977   1.977   1.977   1.977   1.977   1.977   1.977   1.977   1.977   1.977   1.977   1.977   1.977   1.977   1.977   1.977   1.977   1.977   1.977   1.977   1.977   1.977   1.977   1.977   1.977   1.977   1.977   1.977   1.977   1.977   1.977   1.977   1.977   1.977   1.977   1.977   1.977   1.977   1.977   1.977   1.977   1.977   1.977   1.977   1.977   1.977
   145.00    1.977   1.977   1.977   1.977   1.977   1.977   1.977   1.977   1.977   1.977   1.977   1.977   1.977   1.977   1.977   1.977   1.977   1.977   1.977   1.977   1.977   1.977   1.977   1.977   1.977   1.977   1.977   1.977   1.977   1.977   1.977   1.977   1.977   1.977   1.977   1.977   1.977   1.977   1.977   1.977   1.977   1.977   1.977   1.977   1.977   1.977   1.977   1.977   1.977   1.977   1.977   1.977   1.977
   140.00    1.977   1.977   1.977   1.977   1.977   1.977   1.977   1.977   1.977   1.977   1.977   1.977   1.977   1.977   1.977   1.977   1.977   1.977   1.977   1.977   1.977   1.977   1.977   1.977   1.977   1.977   1.977   1.977   1.977   1.977   1.977   1.977   1.977   1.977   1.977   1.977   1.977   1.977   1.977   1.977   1.977   1.977   1.977   1.977   1.977   1.977   1.977   1.977   1.977   1.977   1.977   1.977   1.977
   135.00    1.977   1.977   1.977   1.977   1.977   1.977   1.977   1.977   1.977   1.977   1.977   1.977   1.977   1.977   1.977   1.977   1.977   1.977   1.977   1.977   1.977   1.977   1.977   1.977   1.977   1.977   1.977   1.977   1.977   1.977   1.977   1.977   1.977   1.977   1.977   1.977   1.977   1.977   1.977   1.977   1.977   1.977   1.977   1.977   1.977   1.977   1.977   1.977   1.977   1.977   1.977   1.977   1.977
   130.00    1.977   1.977   1.977   1.977   1.977   1.977   1.977   1.977   1.977   1.977   1.977   1.977   1.977   1.977   1.977   1.977   1.977   1.977   1.977   1.977   1.977   1.977   1.977   1.977   1.977   1.977   1.977   1.977   1.977   1.977   1.977   1.977   1.977   1.977   1.977   1.977   1.977   1.977   1.977   1.977   1.977   1.977   1.977   1.977   1.977   1.977   1.977   1.977   1.977   1.977   1.977   1.977   1.977
   125.00    1.977   1.977   1.977   1.977   1.977   1.977   1.977   1.977   1.977   1.977   1.977   1.977   1.977   1.977   1.977   1.977   1.977   1.977   1.977   1.977   1.977   1.977   1.977   1.977   1.977   1.977   1.977   1.977   1.977   1.977   1.977   1.977   1.977   1.977   1.977   1.977   1.977   1.977   1.977   1.977   1.977   1.977   1.977   1.977   1.977   1.977   1.977   1.977   1.977   1.977   1.977   1.977   1.977
   120.00    1.977   1.977   1.977   1.977   1.977   1.977   1.977   1.977   1.977   1.977   1.977   1.977   1.977   1.977   1.977   1.977   1.977   1.977   1.977   1.977   1.977   1.977   1.977   1.977   1.977   1.977   1.977   1.977   1.977   1.977   1.977   1.977   1.977   1.977   1.977   1.977   1.977   1.977   1.977   1.977   1.977   1.977   1.977   1.977   1.977   1.977   1.977   1.977   1.977   1.977   1.977   1.977   1.977
   115.00    1.977   1.977   1.977   1.977   1.977   1.977   1.977   1.977   1.977   1.977   1.977   1.977   1.977   1.977   1.977   1.977   1.977   1.977   1.977   1.977   1.977   1.977   1.977   1.977   1.977   1.977   1.977   1.977   1.977   1.977   1.977   1.977   1.977   1.977   1.977   1.977   1.977   1.977   1.977   1.977   1.977   1.977   1.977   1.977   1.977   1.977   1.977   1.977   1.977   1.977   1.977   1.977   1.977
   110.00    1.977   1.977   1.977   1.977   1.977   1.977   1.977   1.977   1.977   1.977   1.977   1.977   1.977   1.977   1.977   1.977   1.977   1.977   1.977   1.977   1.977   1.977   1.977   1.977   1.977   1.977   1.977   1.977   1.977   1.977   1.977   1.977   1.977   1.977   1.977   1.977   1.977   1.977   1.977   1.977   1.977   1.977   1.977   1.977   1.977   1.977   1.977   1.977   1.977   1.977   1.977   1.977   1.977
   105.00    1.977   1.977   1.977   1.977   1.977   1.977   1.977   1.977   1.977   1.977   1.977   1.977   1.977   1.977   1.977   1.977   1.977   1.977   1.977   1.977   1.977   1.977   1.977   1.977   1.977   1.977   1.977   1.977   1.977   1.977   1.977   1.977   1.977   1.977   1.977   1.977   1.977   1.977   1.977   1.977   1.977   1.977   1.977   1.977   1.977   1.977   1.977   1.977   1.977   1.977   1.977   1.977   1.977
   100.00    1.977   1.977   1.977   1.977   1.977   1.977   1.977   1.977   1.977   1.977   1.977   1.977   1.977   1.977   1.977   1.977   1.977   1.977   1.977   1.977   1.977   1.977   1.977   1.977   1.977   1.977   1.977   1.977   1.977   1.977   1.977   1.977   1.977   1.977   1.977   1.977   1.977   1.977   1.977   1.977   1.977   1.977   1.977   1.977   1.977   1.977   1.977   1.977   1.977   1.977   1.977   1.977   1.977
    95.00    1.977   1.977   1.977   1.977   1.977   1.977   1.977   1.977   1.977   1.977   1.977   1.977   1.977   1.977   1.977   1.977   1.977   1.977   1.977   1.977   1.977   1.977   1.977   1.977   1.977   1.977   1.977   1.977   1.977   1.977   1.977   1.977   1.977   1.977   1.977   1.977   1.977   1.977   1.977   1.977   1.977   1.977   1.977   1.977   1.977   1.977   1.977   1.977   1.977   1.977   1.977   1.977   1.977
    90.00    1.977   1.977   1.977   1.977   1.977   1.977   1.977   1.977   1.977   1.977   1.977   1.977   1.977   1.977   1.977   1.977   1.977   1.977   1.977   1.977   1.977   1.977   1.977   1.977   1.977   1.977   1.977   1.977   1.977   1.977   1.977   1.977   1.977   1.977   1.977   1.977   1.977   1.977   1.977   1.977   1.977   1.977   1.977   1.977   1.977   1.977   1.977   1.977   1.977   1.977   1.977   1.977   1.977
    85.00    1.977   1.977   1.977   1.977   1.977   1.977   1.977   1.977   1.977   1.977   1.977   1.977   1.977   1.977   1.977   1.977   1.977   1.977   1.977   1.977   1.977   1.977   1.977   1.977   1.977   1.977   1.977   1.977   1.977   1.977   1.977   1.977   1.977   1.977   1.977   1.977   1.977   1.977   1.977   1.977   1.977   1.977   1.977   1.977   1.977   1.977   1.977   1.977   1.977   1.977   1.977   1.977   1.977
    80.00    1.977   1.977   1.977   1.977   1.977   1.977   1.977   1.977   1.977   1.977   1.977   1.977   1.977   1.977   1.977   1.977   1.977   1.977   1.977   1.977   1.977   1.977   1.977   1.977   1.977   1.977   1.977   1.977   1.977   1.977   1.977   1.977   1.977   1.977   1.977   1.977   1.977   1.977   1.977   1.977   1.977   1.977   1.977   1.977   1.977   1.977   1.977   1.977   1.977   1.977   1.977   1.977   1.977
    75.00    1.977   1.977   1.977   1.977   1.977   1.977   1.977   1.977   1.977   1.977   1.977   1.977   1.977   1.977   1.977   1.977   1.977   1.977   1.977   1.977   1.977   1.977   1.977   1.977   1.977   1.977   1.977   1.977   1.977   1.977   1.977   1.977   1.977   1.977   1.977   1.977   1.977   1.977   1.977   1.977   1.977   1.977   1.977   1.977   1.977   1.977   1.977   1.977   1.977   1.977   1.977   1.977   1.977
    70.00    1.977   1.977   1.977   1.977   1.977   1.977   1.977   1.977   1.977   1.977   1.977   1.977   1.977   1.977   1.977   1.977   1.977   1.977   1.977   1.977   1.977   1.977   1.977   1.977   1.977   1.977   1.977   1.977   1.977   1.977   1.977   1.977   1.977   1.977   1.977   1.977   1.977   1.977   1.977   1.977   1.977   1.977   1.977   1.977   1.977   1.977   1.977   1.977   1.977   1.977   1.977   1.977   1.977
    65.00    1.977   1.977   1.977   1.977   1.977   1.977   1.977   1.977   1.977   1.977   1.977   1.977   1.977   1.977   1.977   1.977   1.977   1.977   1.977   1.977   1.977   1.977   1.977   1.977   1.977   1.977   1.977   1.977   1.977   1.977   1.977   1.977   1.977   1.977   1.977   1.977   1.977   1.977   1.977   1.977   1.977   1.977   1.977   1.977   1.977   1.977   1.977   1.977   1.977   1.977   1.977   1.977   1.977
    60.00    1.977   1.977   1.977   1.977   1.977   1.977   1.977   1.977   1.977   1.977   1.977   1.977   1.977   1.977   1.977   1.977   1.977   1.977   1.977   1.977   1.977   1.977   1.977   1.977   1.977   1.977   1.977   1.977   1.977   1.977   1.977   1.977   1.977   1.977   1.977   1.977   1.977   1.977   1.977   1.977   1.977   1.977   1.977   1.977   1.977   1.977   1.977   1.977   1.977   1.977   1.977   1.977   1.977
    55.00    1.977   1.977   1.977   1.977   1.977   1.977   1.977   1.977   1.977   1.977   1.977   1.977   1.977   1.977   1.977   1.977   1.977   1.977   1.977   1.977   1.977   1.977   1.977   1.977   1.977   1.977   1.977   1.977   1.977   1.977   1.977   1.977   1.977   1.977   1.977   1.977   1.977   1.977   1.977   1.977   1.977   1.977   1.977   1.977   1.977   1.977   1.977   1.977   1.977   1.977   1.977   1.977   1.977
    50.00    1.977   1.977   1.977   1.977   1.977   1.977   1.977   1.977   1.977   1.977   1.977   1.977   1.977   1.977   1.977   1.977   1.977   1.977   1.977   1.977   1.977   1.977   1.977   1.977   1.977   1.977   1.977   1.977   1.977   1.977   1.977   1.977   1.977   1.977   1.977   1.977   1.977   1.977   1.977   1.977   1.977   1.977   1.977   1.977   1.977   1.977   1.977   1.977   1.977   1.977   1.977   1.977   1.977
    45.00    1.977   1.977   1.977   1.977   1.977   1.977   1.977   1.977   1.977   1.977   1.977   1.977   1.977   1.977   1.977   1.977   1.977   1.977   1.977   1.977   1.977   1.977   1.977   1.977   1.977   1.977   1.977   1.977   1.977   1.977   1.977   1.977   1.977   1.977   1.977   1.977   1.977   1.977   1.977   1.977   1.977   1.977   1.977   1.977   1.977   1.977   1.977   1.977   1.977   1.977   1.977   1.977   1.977
    40.00    1.977   1.977   1.977   1.977   1.977   1.977   1.977   1.977   1.977   1.977   1.977   1.977   1.977   1.977   1.977   1.977   1.977   1.977   1.977   1.977   1.977   1.977   1.977   1.977   1.977   1.977   1.977   1.977   1.977   1.977   1.977   1.977   1.977   1.977   1.977   1.977   1.977   1.977   1.977   1.977   1.977   1.977   1.977   1.977   1.977   1.977   1.977   1.977   1.977   1.977   1.977   1.977   1.977
    35.00    1.977   1.977   1.977   1.977   1.977   1.977   1.977   1.977   1.977   1.977   1.977   1.977   1.977   1.977   1.977   1.977   1.977   1.977   1.977   1.977   1.977   1.977   1.977   1.977   1.977   1.977   1.977   1.977   1.977   1.977   1.977   1.977   1.977   1.977   1.977   1.977   1.977   1.977   1.977   1.977   1.977   1.977   1.977   1.977   1.977   1.977   1.977   1.977   1.977   1.977   1.977   1.977   1.977
    30.00    1.977   1.977   1.977   1.977   1.977   1.977   1.977   1.977   1.977   1.977   1.977   1.977   1.977   1.977   1.977   1.977   1.977   1.977   1.977   1.977   1.977   1.977   1.977   1.977   1.977   1.977   1.977   1.977   1.977   1.977   1.977   1.977   1.977   1.977   1.977   1.977   1.977   1.977   1.977   1.977   1.977   1.977   1.977   1.977   1.977   1.977   1.977   1.977   1.977   1.977   1.977   1.977   1.977
    25.00    1.977   1.977   1.977   1.977   1.977   1.977   1.977   1.977   1.977   1.977   1.977   1.977   1.977   1.977   1.977   1.977   1.977   1.977   1.977   1.977   1.977   1.977   1.977   1.977   1.977   1.977   1.977   1.977   1.977   1.977   1.977   1.977   1.977   1.977   1.977   1.977   1.977   1.977   1.977   1.977   1.977   1.977   1.977   1.977   1.977   1.977   1.977   1.977   1.977   1.977   1.977   1.977   1.977
    20.00    1.977   1.977   1.977   1.977   1.977   1.977   1.977   1.977   1.977   1.977   1.977   1.977   1.977   1.977   1.977   1.977   1.977   1.977   1.977   1.977   1.977   1.977   1.977   1.977   1.977   1.977   1.977   1.977   1.977   1.977   1.977   1.977   1.977   1.977   1.977   1.977   1.977   1.977   1.977   1.977   1.977   1.977   1.977   1.977   1.977   1.977   1.977   1.977   1.977   1.977   1.977   1.977   1.977
    15.00    1.977   1.977   1.977   1.977   1.977   1.977   1.977   1.977   1.977   1.977   1.977   1.977   1.977   1.977   1.977   1.977   1.977   1.977   1.977   1.977   1.977   1.977   1.977   1.977   1.977   1.977   1.977   1.977   1.977   1.977   1.977   1.977   1.977   1.977   1.977   1.977   1.977   1.977   1.977   1.977   1.977   1.977   1.977   1.977   1.977   1.977   1.977   1.977   1.977   1.977   1.977   1.977   1.977
    10.00    1.977   1.977   1.977   1.977   1.977   1.977   1.977   1.977   1.977   1.977   1.977   1.977   1.977   1.977   1.977   1.977   1.977   1.977   1.977   1.977   1.977   1.977   1.977   1.977   1.977   1.977   1.977   1.977   1.977   1.977   1.977   1.977   1.977   1.977   1.977   1.977   1.977   1.977   1.977   1.977   1.977   1.977   1.977   1.977   1.977   1.977   1.977   1.977   1.977   1.977   1.977   1.977   1.977

   Mean standard deviation across all grid points:
      u component:    3.905 m/s
      v component:    3.233 m/s
      w component:    1.977 m/s


U-component (X) statistics from the hub grid point:

   Mean =  37.5000 m/s
   TI   =  10.0909 %

Nyquist frequency of turbulent wind field =        10.000 Hz


Processing complete.  2397 CPU seconds used.
