
This summary information was generated by ElastoDyn on 04-Dec-2024 at 13:41:56.


Turbine features:

            Upwind, 3-bladed rotor with rigid hub.
            The model has 14 of 24 DOFs active (enabled) at start-up.
 Disabled   Platform horizontal surge translation DOF 
 Disabled   Platform horizontal sway translation DOF 
 Disabled   Platform vertical heave translation DOF 
 Disabled   Platform roll tilt rotation DOF 
 Disabled   Platform pitch tilt rotation DOF 
 Disabled   Platform yaw rotation DOF 
 Enabled    1st tower fore-aft bending mode DOF 
 Enabled    1st tower side-to-side bending mode DOF 
 Enabled    2nd tower fore-aft bending mode DOF 
 Enabled    2nd tower side-to-side bending mode DOF 
 Disabled   Nacelle yaw DOF 
 Disabled   Rotor-furl DOF 
 Enabled    Variable speed generator DOF 
 Disabled   Drivetrain rotational-flexibility DOF 
 Disabled   Tail-furl DOF 
 Enabled    1st flapwise bending-mode DOF of blade 1 
 Enabled    1st edgewise bending-mode DOF of blade 1 
 Enabled    2nd flapwise bending-mode DOF of blade 1 
 Enabled    1st flapwise bending-mode DOF of blade 2 
 Enabled    1st edgewise bending-mode DOF of blade 2 
 Enabled    2nd flapwise bending-mode DOF of blade 2 
 Enabled    1st flapwise bending-mode DOF of blade 3 
 Enabled    1st edgewise bending-mode DOF of blade 3 
 Enabled    2nd flapwise bending-mode DOF of blade 3 


Time steps:

    Structural            (s)        0.01000000


Some calculated parameters:

    Hub-Height            (m)           140.679
    Flexible Tower Length (m)           137.000
    Flexible Blade Length (m)            87.000


Rotor mass properties:

    Rotor Mass            (kg)       111364.180
    Rotor Inertia         (kg-m^2) 97125384.000
                                        Blade 1      Blade 2      Blade 3
                                        -------      -------      -------
    Mass                  (kg)        24550.750    24550.750    24550.750
    Second Mass Moment    (kg-m^2) 29667500.000 29667500.000 29667500.000
    First Mass Moment     (kg-m)     702662.312   702662.312   702662.312
    Center of Mass        (m)            28.621       28.621       28.621


Additional mass properties:

    Tower-top Mass        (kg)       356008.500
    Tower Mass            (kg)      1155480.125
    Platform Mass         (kg)            0.000
    Mass Incl. Platform   (kg)      1511488.625


Interpolated tower properties:

Node  TwFract   HNodes  DHNodes  TMassDen    FAStiff    SSStiff
 (-)      (-)      (m)      (m)    (kg/m)     (Nm^2)     (Nm^2)
   1    0.025    3.425    6.850 11679.000  1.234E+12  1.234E+12
   2    0.075   10.275    6.850 11679.000  1.234E+12  1.234E+12
   3    0.125   17.125    6.850 11679.000  1.234E+12  1.234E+12
   4    0.175   23.975    6.850 11632.603  1.228E+12  1.228E+12
   5    0.225   30.825    6.850 11306.774  1.185E+12  1.185E+12
   6    0.275   37.675    6.850 10980.946  1.142E+12  1.142E+12
   7    0.325   44.525    6.850 10655.118  1.099E+12  1.099E+12
   8    0.375   51.375    6.850 10107.707  1.035E+12  1.035E+12
   9    0.425   58.225    6.850  9499.535  9.643E+11  9.643E+11
  10    0.475   65.075    6.850  8891.362  8.939E+11  8.939E+11
  11    0.525   71.925    6.850  8307.887  8.309E+11  8.309E+11
  12    0.575   78.775    6.850  7757.526  7.780E+11  7.780E+11
  13    0.625   85.625    6.850  7207.167  7.250E+11  7.250E+11
  14    0.675   92.475    6.850  6660.814  6.726E+11  6.726E+11
  15    0.725   99.325    6.850  6168.200  6.268E+11  6.268E+11
  16    0.775  106.175    6.850  5675.586  5.810E+11  5.810E+11
  17    0.825  113.025    6.850  5182.973  5.352E+11  5.352E+11
  18    0.875  119.875    6.850  4831.570  4.979E+11  4.979E+11
  19    0.925  126.725    6.850  4537.342  4.642E+11  4.642E+11
  20    0.975  133.575    6.850  4243.115  4.304E+11  4.304E+11


Interpolated blade 1 properties:

Node  BlFract   RNodes  DRNodes PitchAxis  StrcTwst  BMassDen    FlpStff    EdgStff
 (-)      (-)      (m)      (m)       (-)     (deg)    (kg/m)     (Nm^2)     (Nm^2)
   1    0.024    4.071    4.143     0.250    60.677   373.000  1.693E+10  1.888E+10
   2    0.071    8.214    4.143     0.250    39.338   435.898  1.128E+10  1.474E+10
   3    0.119   12.357    4.143     0.250    21.946   586.934  5.780E+09  8.210E+09
   4    0.167   16.500    4.143     0.250    11.431   625.797  4.434E+09  6.526E+09
   5    0.214   20.643    4.143     0.250     8.083   544.324  3.418E+09  5.708E+09
   6    0.262   24.786    4.143     0.250     4.734   462.851  2.403E+09  4.889E+09
   7    0.310   28.929    4.143     0.250     2.882   416.543  1.945E+09  4.420E+09
   8    0.357   33.071    4.143     0.250     1.336   377.439  1.601E+09  4.023E+09
   9    0.405   37.214    4.143     0.250    -0.210   338.335  1.257E+09  3.625E+09
  10    0.452   41.357    4.143     0.250    -1.160   301.762  9.815E+08  3.190E+09
  11    0.500   45.500    4.143     0.250    -1.802   266.500  7.410E+08  2.735E+09
  12    0.548   49.643    4.143     0.250    -2.444   231.238  5.005E+08  2.280E+09
  13    0.595   53.786    4.143     0.250    -2.714   198.859  3.162E+08  1.868E+09
  14    0.643   57.929    4.143     0.250    -2.264   172.054  2.405E+08  1.541E+09
  15    0.690   62.071    4.143     0.250    -1.815   145.249  1.648E+08  1.214E+09
  16    0.738   66.214    4.143     0.250    -1.397   119.667  9.846E+07  9.121E+08
  17    0.786   70.357    4.143     0.250    -1.133   100.061  7.767E+07  7.302E+08
  18    0.833   74.500    4.143     0.250    -0.869    80.456  5.687E+07  5.482E+08
  19    0.881   78.643    4.143     0.250    -0.850    63.439  3.907E+07  3.782E+08
  20    0.929   82.786    4.143     0.250    -1.095    49.204  2.447E+07  2.210E+08
  21    0.976   86.929    4.143     0.250    -1.322    36.434  8.639E+06  7.400E+07


Interpolated blade 2 properties:

Node  BlFract   RNodes  DRNodes PitchAxis  StrcTwst  BMassDen    FlpStff    EdgStff
 (-)      (-)      (m)      (m)       (-)     (deg)    (kg/m)     (Nm^2)     (Nm^2)
   1    0.024    4.071    4.143     0.250    60.677   373.000  1.693E+10  1.888E+10
   2    0.071    8.214    4.143     0.250    39.338   435.898  1.128E+10  1.474E+10
   3    0.119   12.357    4.143     0.250    21.946   586.934  5.780E+09  8.210E+09
   4    0.167   16.500    4.143     0.250    11.431   625.797  4.434E+09  6.526E+09
   5    0.214   20.643    4.143     0.250     8.083   544.324  3.418E+09  5.708E+09
   6    0.262   24.786    4.143     0.250     4.734   462.851  2.403E+09  4.889E+09
   7    0.310   28.929    4.143     0.250     2.882   416.543  1.945E+09  4.420E+09
   8    0.357   33.071    4.143     0.250     1.336   377.439  1.601E+09  4.023E+09
   9    0.405   37.214    4.143     0.250    -0.210   338.335  1.257E+09  3.625E+09
  10    0.452   41.357    4.143     0.250    -1.160   301.762  9.815E+08  3.190E+09
  11    0.500   45.500    4.143     0.250    -1.802   266.500  7.410E+08  2.735E+09
  12    0.548   49.643    4.143     0.250    -2.444   231.238  5.005E+08  2.280E+09
  13    0.595   53.786    4.143     0.250    -2.714   198.859  3.162E+08  1.868E+09
  14    0.643   57.929    4.143     0.250    -2.264   172.054  2.405E+08  1.541E+09
  15    0.690   62.071    4.143     0.250    -1.815   145.249  1.648E+08  1.214E+09
  16    0.738   66.214    4.143     0.250    -1.397   119.667  9.846E+07  9.121E+08
  17    0.786   70.357    4.143     0.250    -1.133   100.061  7.767E+07  7.302E+08
  18    0.833   74.500    4.143     0.250    -0.869    80.456  5.687E+07  5.482E+08
  19    0.881   78.643    4.143     0.250    -0.850    63.439  3.907E+07  3.782E+08
  20    0.929   82.786    4.143     0.250    -1.095    49.204  2.447E+07  2.210E+08
  21    0.976   86.929    4.143     0.250    -1.322    36.434  8.639E+06  7.400E+07


Interpolated blade 3 properties:

Node  BlFract   RNodes  DRNodes PitchAxis  StrcTwst  BMassDen    FlpStff    EdgStff
 (-)      (-)      (m)      (m)       (-)     (deg)    (kg/m)     (Nm^2)     (Nm^2)
   1    0.024    4.071    4.143     0.250    60.677   373.000  1.693E+10  1.888E+10
   2    0.071    8.214    4.143     0.250    39.338   435.898  1.128E+10  1.474E+10
   3    0.119   12.357    4.143     0.250    21.946   586.934  5.780E+09  8.210E+09
   4    0.167   16.500    4.143     0.250    11.431   625.797  4.434E+09  6.526E+09
   5    0.214   20.643    4.143     0.250     8.083   544.324  3.418E+09  5.708E+09
   6    0.262   24.786    4.143     0.250     4.734   462.851  2.403E+09  4.889E+09
   7    0.310   28.929    4.143     0.250     2.882   416.543  1.945E+09  4.420E+09
   8    0.357   33.071    4.143     0.250     1.336   377.439  1.601E+09  4.023E+09
   9    0.405   37.214    4.143     0.250    -0.210   338.335  1.257E+09  3.625E+09
  10    0.452   41.357    4.143     0.250    -1.160   301.762  9.815E+08  3.190E+09
  11    0.500   45.500    4.143     0.250    -1.802   266.500  7.410E+08  2.735E+09
  12    0.548   49.643    4.143     0.250    -2.444   231.238  5.005E+08  2.280E+09
  13    0.595   53.786    4.143     0.250    -2.714   198.859  3.162E+08  1.868E+09
  14    0.643   57.929    4.143     0.250    -2.264   172.054  2.405E+08  1.541E+09
  15    0.690   62.071    4.143     0.250    -1.815   145.249  1.648E+08  1.214E+09
  16    0.738   66.214    4.143     0.250    -1.397   119.667  9.846E+07  9.121E+08
  17    0.786   70.357    4.143     0.250    -1.133   100.061  7.767E+07  7.302E+08
  18    0.833   74.500    4.143     0.250    -0.869    80.456  5.687E+07  5.482E+08
  19    0.881   78.643    4.143     0.250    -0.850    63.439  3.907E+07  3.782E+08
  20    0.929   82.786    4.143     0.250    -1.095    49.204  2.447E+07  2.210E+08
  21    0.976   86.929    4.143     0.250    -1.322    36.434  8.639E+06  7.400E+07


Requested Outputs:


 Col   Parameter            Units               
 ---   ---------------      ---------------     
   0   Time                 (s)                 
   1   YawPzn               (deg)               
   2   BldPitch1            (deg)               
   3   BldPitch2            (deg)               
   4   BldPitch3            (deg)               
   5   Azimuth              (deg)               
   6   RotSpeed             (rpm)               
   7   RotTorq              (kN-m)              
   8   RotPwr               (kW)                
   9   TipClrnc1            (m)                 
  10   TipClrnc2            (m)                 
  11   TipClrnc3            (m)                 
  12   TTDspFA              (m)                 
  13   TTDspSS              (m)                 
  14   RootFxb1             (kN)                
  15   RootFyb1             (kN)                
  16   RootFzb1             (kN)                
  17   RootMxb1             (kN-m)              
  18   RootMyb1             (kN-m)              
  19   RootMzb1             (kN-m)              
  20   RootFxc1             (kN)                
  21   RootFyc1             (kN)                
  22   RootMxc1             (kN-m)              
  23   RootMyc1             (kN-m)              
  24   LSShftFxa            (kN)                
  25   LSShftFya            (kN)                
  26   LSShftFza            (kN)                
  27   LSShftMxa            (kN-m)              
  28   LSSTipMya            (kN-m)              
  29   LSSTipMza            (kN-m)              
  30   LSShftFys            (kN)                
  31   LSShftFzs            (kN)                
  32   LSSTipMys            (kN-m)              
  33   LSSTipMzs            (kN-m)              
  34   HSShftTq             (kN-m)              
  35   HSSBrTq              (kN-m)              
  36   HSShftPwr            (kW)                
  37   HSShftV              (rpm)               
  38   HSShftA              (deg/s^2)           
  39   YawBrFxp             (kN)                
  40   YawBrFyp             (kN)                
  41   YawBrFzp             (kN)                
  42   YawBrMxp             (kN-m)              
  43   YawBrMyp             (kN-m)              
  44   YawBrMzp             (kN-m)              
  45   TwrBsFxt             (kN)                
  46   TwrBsFyt             (kN)                
  47   TwrBsFzt             (kN)                
  48   TwrBsMxt             (kN-m)              
  49   TwrBsMyt             (kN-m)              
  50   TwrBsMzt             (kN-m)              


  Requested Output Channels at each blade station:
 Col   Parameter            Units               
 ---   ---------------      ---------------     
