
This summary information was generated by ElastoDyn on 10-Dec-2024 at 16:22:10.


Turbine features:

            Upwind, 3-bladed rotor with rigid hub.
            The model has 2 of 24 DOFs active (enabled) at start-up.
 Disabled   Platform horizontal surge translation DOF 
 Disabled   Platform horizontal sway translation DOF 
 Disabled   Platform vertical heave translation DOF 
 Disabled   Platform roll tilt rotation DOF 
 Disabled   Platform pitch tilt rotation DOF 
 Disabled   Platform yaw rotation DOF 
 Enabled    1st tower fore-aft bending mode DOF 
 Disabled   1st tower side-to-side bending mode DOF 
 Disabled   2nd tower fore-aft bending mode DOF 
 Disabled   2nd tower side-to-side bending mode DOF 
 Disabled   Nacelle yaw DOF 
 Disabled   Rotor-furl DOF 
 Enabled    Variable speed generator DOF 
 Disabled   Drivetrain rotational-flexibility DOF 
 Disabled   Tail-furl DOF 
 Disabled   1st flapwise bending-mode DOF of blade 1 
 Disabled   1st edgewise bending-mode DOF of blade 1 
 Disabled   2nd flapwise bending-mode DOF of blade 1 
 Disabled   1st flapwise bending-mode DOF of blade 2 
 Disabled   1st edgewise bending-mode DOF of blade 2 
 Disabled   2nd flapwise bending-mode DOF of blade 2 
 Disabled   1st flapwise bending-mode DOF of blade 3 
 Disabled   1st edgewise bending-mode DOF of blade 3 
 Disabled   2nd flapwise bending-mode DOF of blade 3 


Time steps:

    Structural            (s)        0.01000000


Some calculated parameters:

    Hub-Height            (m)           140.679
    Flexible Tower Length (m)           137.000
    Flexible Blade Length (m)            87.000


Rotor mass properties:

    Rotor Mass            (kg)       111399.852
    Rotor Inertia         (kg-m^2) 98167088.000
                                        Blade 1      Blade 2      Blade 3
                                        -------      -------      -------
    Mass                  (kg)        24562.643    24562.643    24562.643
    Second Mass Moment    (kg-m^2) 29988166.000 29988166.000 29988166.000
    First Mass Moment     (kg-m)     709956.625   709956.625   709956.625
    Center of Mass        (m)            28.904       28.904       28.904


Additional mass properties:

    Tower-top Mass        (kg)       356044.156
    Tower Mass            (kg)      1155480.125
    Platform Mass         (kg)            0.000
    Mass Incl. Platform   (kg)      1511524.250


Interpolated tower properties:

Node  TwFract   HNodes  DHNodes  TMassDen    FAStiff    SSStiff
 (-)      (-)      (m)      (m)    (kg/m)     (Nm^2)     (Nm^2)
   1    0.025    3.425    6.850 11679.000  1.234E+12  1.234E+12
   2    0.075   10.275    6.850 11679.000  1.234E+12  1.234E+12
   3    0.125   17.125    6.850 11679.000  1.234E+12  1.234E+12
   4    0.175   23.975    6.850 11632.603  1.228E+12  1.228E+12
   5    0.225   30.825    6.850 11306.774  1.185E+12  1.185E+12
   6    0.275   37.675    6.850 10980.946  1.142E+12  1.142E+12
   7    0.325   44.525    6.850 10655.118  1.099E+12  1.099E+12
   8    0.375   51.375    6.850 10107.707  1.035E+12  1.035E+12
   9    0.425   58.225    6.850  9499.535  9.643E+11  9.643E+11
  10    0.475   65.075    6.850  8891.362  8.939E+11  8.939E+11
  11    0.525   71.925    6.850  8307.887  8.309E+11  8.309E+11
  12    0.575   78.775    6.850  7757.526  7.780E+11  7.780E+11
  13    0.625   85.625    6.850  7207.167  7.250E+11  7.250E+11
  14    0.675   92.475    6.850  6660.814  6.726E+11  6.726E+11
  15    0.725   99.325    6.850  6168.200  6.268E+11  6.268E+11
  16    0.775  106.175    6.850  5675.586  5.810E+11  5.810E+11
  17    0.825  113.025    6.850  5182.973  5.352E+11  5.352E+11
  18    0.875  119.875    6.850  4831.570  4.979E+11  4.979E+11
  19    0.925  126.725    6.850  4537.342  4.642E+11  4.642E+11
  20    0.975  133.575    6.850  4243.115  4.304E+11  4.304E+11


Interpolated blade 1 properties:

Node  BlFract   RNodes  DRNodes PitchAxis  StrcTwst  BMassDen    FlpStff    EdgStff
 (-)      (-)      (m)      (m)       (-)     (deg)    (kg/m)     (Nm^2)     (Nm^2)
   1    0.024    4.129    4.258     0.250    60.321   373.000  1.690E+10  1.890E+10
   2    0.072    8.283    4.050     0.250    39.063   438.112  1.113E+10  1.457E+10
   3    0.119   12.333    4.049     0.250    22.054   585.934  5.791E+09  8.225E+09
   4    0.206   19.931   11.148     0.250     8.658   558.323  3.593E+09  5.848E+09
   5    0.345   32.057   13.105     0.250     1.714   387.009  1.685E+09  4.120E+09
   6    0.500   45.500   13.780     0.250    -1.802   266.500  7.410E+08  2.735E+09
   7    0.655   58.943   13.105     0.250    -2.154   165.494  2.220E+08  1.461E+09
   8    0.794   71.069   11.148     0.250    -1.088    96.693  7.410E+07  6.989E+08
   9    0.905   80.692    8.099     0.250    -0.971    56.397  3.185E+07  3.005E+08
  10    0.976   86.871    4.258     0.250    -1.319    36.593  8.875E+06  7.592E+07


Interpolated blade 2 properties:

Node  BlFract   RNodes  DRNodes PitchAxis  StrcTwst  BMassDen    FlpStff    EdgStff
 (-)      (-)      (m)      (m)       (-)     (deg)    (kg/m)     (Nm^2)     (Nm^2)
   1    0.024    4.129    4.258     0.250    60.321   373.000  1.690E+10  1.890E+10
   2    0.072    8.283    4.050     0.250    39.063   438.112  1.113E+10  1.457E+10
   3    0.119   12.333    4.049     0.250    22.054   585.934  5.791E+09  8.225E+09
   4    0.206   19.931   11.148     0.250     8.658   558.323  3.593E+09  5.848E+09
   5    0.345   32.057   13.105     0.250     1.714   387.009  1.685E+09  4.120E+09
   6    0.500   45.500   13.780     0.250    -1.802   266.500  7.410E+08  2.735E+09
   7    0.655   58.943   13.105     0.250    -2.154   165.494  2.220E+08  1.461E+09
   8    0.794   71.069   11.148     0.250    -1.088    96.693  7.410E+07  6.989E+08
   9    0.905   80.692    8.099     0.250    -0.971    56.397  3.185E+07  3.005E+08
  10    0.976   86.871    4.258     0.250    -1.319    36.593  8.875E+06  7.592E+07


Interpolated blade 3 properties:

Node  BlFract   RNodes  DRNodes PitchAxis  StrcTwst  BMassDen    FlpStff    EdgStff
 (-)      (-)      (m)      (m)       (-)     (deg)    (kg/m)     (Nm^2)     (Nm^2)
   1    0.024    4.129    4.258     0.250    60.321   373.000  1.690E+10  1.890E+10
   2    0.072    8.283    4.050     0.250    39.063   438.112  1.113E+10  1.457E+10
   3    0.119   12.333    4.049     0.250    22.054   585.934  5.791E+09  8.225E+09
   4    0.206   19.931   11.148     0.250     8.658   558.323  3.593E+09  5.848E+09
   5    0.345   32.057   13.105     0.250     1.714   387.009  1.685E+09  4.120E+09
   6    0.500   45.500   13.780     0.250    -1.802   266.500  7.410E+08  2.735E+09
   7    0.655   58.943   13.105     0.250    -2.154   165.494  2.220E+08  1.461E+09
   8    0.794   71.069   11.148     0.250    -1.088    96.693  7.410E+07  6.989E+08
   9    0.905   80.692    8.099     0.250    -0.971    56.397  3.185E+07  3.005E+08
  10    0.976   86.871    4.258     0.250    -1.319    36.593  8.875E+06  7.592E+07


Requested Outputs:


 Col   Parameter            Units               
 ---   ---------------      ---------------     
   0   Time                 (s)                 
   1   BldPitch1            (deg)               
   2   RotSpeed             (rpm)               
   3   TTDspFA              (m)                 
   4   TwrBsMyt             (kN-m)              
   5   LSShftTq             (kN-m)              
   6   RootMyc1             (kN-m)              


  Requested Output Channels at each blade station:
 Col   Parameter            Units               
 ---   ---------------      ---------------     
