
This summary information was generated by ElastoDyn on 03-Dec-2024 at 10:23:50.


Turbine features:

            Upwind, 3-bladed rotor with rigid hub.
            The model has 5 of 24 DOFs active (enabled) at start-up.
 Disabled   Platform horizontal surge translation DOF 
 Disabled   Platform horizontal sway translation DOF 
 Disabled   Platform vertical heave translation DOF 
 Disabled   Platform roll tilt rotation DOF 
 Disabled   Platform pitch tilt rotation DOF 
 Disabled   Platform yaw rotation DOF 
 Enabled    1st tower fore-aft bending mode DOF 
 Enabled    1st tower side-to-side bending mode DOF 
 Enabled    2nd tower fore-aft bending mode DOF 
 Enabled    2nd tower side-to-side bending mode DOF 
 Disabled   Nacelle yaw DOF 
 Disabled   Rotor-furl DOF 
 Enabled    Variable speed generator DOF 
 Disabled   Drivetrain rotational-flexibility DOF 
 Disabled   Tail-furl DOF 
 Disabled   1st flapwise bending-mode DOF of blade 1 
 Disabled   1st edgewise bending-mode DOF of blade 1 
 Disabled   2nd flapwise bending-mode DOF of blade 1 
 Disabled   1st flapwise bending-mode DOF of blade 2 
 Disabled   1st edgewise bending-mode DOF of blade 2 
 Disabled   2nd flapwise bending-mode DOF of blade 2 
 Disabled   1st flapwise bending-mode DOF of blade 3 
 Disabled   1st edgewise bending-mode DOF of blade 3 
 Disabled   2nd flapwise bending-mode DOF of blade 3 


Time steps:

    Structural            (s)        0.01000000


Some calculated parameters:

    Hub-Height            (m)           140.437
    Flexible Tower Length (m)           137.000
    Flexible Blade Length (m)            87.000


Rotor mass properties:

    Rotor Mass            (kg)       117141.969
    Rotor Inertia         (kg-m^2) 73500376.000
                                        Blade 1      Blade 2      Blade 3
                                        -------      -------      -------
    Mass                  (kg)        20120.654    20120.654    20120.654
    Second Mass Moment    (kg-m^2) 22362762.000 22362762.000 22362762.000
    First Mass Moment     (kg-m)     521356.125   521356.125   521356.125
    Center of Mass        (m)            25.911       25.911       25.911


Additional mass properties:

    Tower-top Mass        (kg)       361786.281
    Tower Mass            (kg)       783669.438
    Platform Mass         (kg)            0.000
    Mass Incl. Platform   (kg)      1145455.750


Interpolated tower properties:

Node  TwFract   HNodes  DHNodes  TMassDen    FAStiff    SSStiff
 (-)      (-)      (m)      (m)    (kg/m)     (Nm^2)     (Nm^2)
   1    0.025    3.425    6.850  9476.368  9.513E+11  9.513E+11
   2    0.075   10.275    6.850  9211.299  9.209E+11  9.209E+11
   3    0.125   17.125    6.850  8912.472  8.885E+11  8.885E+11
   4    0.175   23.975    6.850  8525.569  8.506E+11  8.506E+11
   5    0.225   30.825    6.850  8137.023  8.125E+11  8.125E+11
   6    0.275   37.675    6.850  7719.767  7.714E+11  7.714E+11
   7    0.325   44.525    6.850  7302.510  7.304E+11  7.304E+11
   8    0.375   51.375    6.850  6822.646  6.830E+11  6.830E+11
   9    0.425   58.225    6.850  6330.074  6.343E+11  6.343E+11
  10    0.475   65.075    6.850  5867.469  5.866E+11  5.866E+11
  11    0.525   71.925    6.850  5424.156  5.394E+11  5.394E+11
  12    0.575   78.775    6.850  4955.826  4.819E+11  4.819E+11
  13    0.625   85.625    6.850  4447.785  4.079E+11  4.079E+11
  14    0.675   92.475    6.850  3961.394  3.356E+11  3.356E+11
  15    0.725   99.325    6.850  3585.706  2.720E+11  2.720E+11
  16    0.775  106.175    6.850  3210.017  2.084E+11  2.084E+11
  17    0.825  113.025    6.850  2944.053  1.681E+11  1.681E+11
  18    0.875  119.875    6.850  2685.010  1.293E+11  1.293E+11
  19    0.925  126.725    6.850  2512.150  1.032E+11  1.032E+11
  20    0.975  133.575    6.850  2373.008  8.209E+10  8.209E+10


Interpolated blade 1 properties:

Node  BlFract   RNodes  DRNodes PitchAxis  StrcTwst  BMassDen    FlpStff    EdgStff
 (-)      (-)      (m)      (m)       (-)     (deg)    (kg/m)     (Nm^2)     (Nm^2)
   1    0.010    2.870    1.740     0.494    19.841   912.227  8.657E+09  8.700E+09
   2    0.030    4.610    1.740     0.482    19.530   768.691  7.401E+09  7.528E+09
   3    0.050    6.350    1.740     0.448    19.145   653.400  6.438E+09  7.109E+09
   4    0.070    8.090    1.740     0.408    18.729   547.623  5.549E+09  6.890E+09
   5    0.090    9.830    1.740     0.374    18.162   466.681  4.461E+09  6.359E+09
   6    0.110   11.570    1.740     0.344    17.430   403.035  3.588E+09  6.010E+09
   7    0.130   13.310    1.740     0.320    16.356   374.895  3.161E+09  6.036E+09
   8    0.150   15.050    1.740     0.301    15.081   344.840  2.835E+09  5.845E+09
   9    0.170   16.790    1.740     0.285    13.672   313.526  2.576E+09  5.510E+09
  10    0.190   18.530    1.740     0.274    12.429   290.833  2.408E+09  4.989E+09
  11    0.210   20.270    1.740     0.264    11.241   273.476  2.277E+09  4.486E+09
  12    0.230   22.010    1.740     0.257    10.234   278.734  2.278E+09  4.217E+09
  13    0.250   23.750    1.740     0.251     9.230   284.951  2.278E+09  3.947E+09
  14    0.270   25.490    1.740     0.246     8.231   292.434  2.276E+09  3.672E+09
  15    0.290   27.230    1.740     0.243     7.295   295.895  2.211E+09  3.410E+09
  16    0.310   28.970    1.740     0.241     6.385   297.688  2.119E+09  3.152E+09
  17    0.330   30.710    1.740     0.241     5.556   285.313  1.873E+09  2.941E+09
  18    0.350   32.450    1.740     0.241     4.768   272.565  1.633E+09  2.723E+09
  19    0.370   34.190    1.740     0.243     4.093   259.465  1.416E+09  2.486E+09
  20    0.390   35.930    1.740     0.246     3.502   247.830  1.233E+09  2.273E+09
  21    0.410   37.670    1.740     0.249     2.984   237.471  1.079E+09  2.081E+09
  22    0.430   39.410    1.740     0.253     2.594   230.256  9.610E+08  1.931E+09
  23    0.450   41.150    1.740     0.258     2.239   223.833  8.525E+08  1.792E+09
  24    0.470   42.890    1.740     0.264     1.937   217.996  7.568E+08  1.651E+09
  25    0.490   44.630    1.740     0.270     1.663   211.757  6.650E+08  1.488E+09
  26    0.510   46.370    1.740     0.276     1.440   204.810  5.804E+08  1.288E+09
  27    0.530   48.110    1.740     0.282     1.243   196.397  5.019E+08  1.069E+09
  28    0.550   49.850    1.740     0.288     1.061   187.153  4.269E+08  8.393E+08
  29    0.570   51.590    1.740     0.294     0.875   178.277  3.622E+08  6.705E+08
  30    0.590   53.330    1.740     0.299     0.687   169.256  3.005E+08  5.213E+08
  31    0.610   55.070    1.740     0.304     0.499   159.467  2.477E+08  4.312E+08
  32    0.630   56.810    1.740     0.308     0.334   149.544  2.018E+08  3.588E+08
  33    0.650   58.550    1.740     0.311     0.198   139.467  1.637E+08  3.066E+08
  34    0.670   60.290    1.740     0.313     0.069   129.664  1.352E+08  2.640E+08
  35    0.690   62.030    1.740     0.315    -0.057   120.071  1.101E+08  2.252E+08
  36    0.710   63.770    1.740     0.317    -0.172   117.012  9.678E+07  2.148E+08
  37    0.730   65.510    1.740     0.317    -0.288   114.812  8.489E+07  2.077E+08
  38    0.750   67.250    1.740     0.316    -0.406   114.681  7.653E+07  2.083E+08
  39    0.770   68.990    1.740     0.314    -0.538   114.669  6.967E+07  2.096E+08
  40    0.790   70.730    1.740     0.310    -0.682   114.747  6.395E+07  2.114E+08
  41    0.810   72.470    1.740     0.305    -0.840    99.539  5.336E+07  1.615E+08
  42    0.830   74.210    1.740     0.299    -1.002    81.508  4.189E+07  1.067E+08
  43    0.850   75.950    1.740     0.292    -1.173    63.347  3.042E+07  8.503E+07
  44    0.870   77.690    1.740     0.286    -1.365    45.442  1.956E+07  6.301E+07
  45    0.890   79.430    1.740     0.280    -1.593    27.925  9.647E+06  4.042E+07
  46    0.910   81.170    1.740     0.275    -1.919    19.456  4.880E+06  2.743E+07
  47    0.930   82.910    1.740     0.271    -2.292    15.396  2.622E+06  1.912E+07
  48    0.950   84.650    1.740     0.268    -2.875     9.362  1.222E+06  1.010E+07
  49    0.970   86.390    1.740     0.264    -3.505     4.131  1.507E+05  2.678E+06
  50    0.990   88.130    1.740     0.255    -4.262     2.046  5.137E+04  9.140E+05


Interpolated blade 2 properties:

Node  BlFract   RNodes  DRNodes PitchAxis  StrcTwst  BMassDen    FlpStff    EdgStff
 (-)      (-)      (m)      (m)       (-)     (deg)    (kg/m)     (Nm^2)     (Nm^2)
   1    0.010    2.870    1.740     0.494    19.841   912.227  8.657E+09  8.700E+09
   2    0.030    4.610    1.740     0.482    19.530   768.691  7.401E+09  7.528E+09
   3    0.050    6.350    1.740     0.448    19.145   653.400  6.438E+09  7.109E+09
   4    0.070    8.090    1.740     0.408    18.729   547.623  5.549E+09  6.890E+09
   5    0.090    9.830    1.740     0.374    18.162   466.681  4.461E+09  6.359E+09
   6    0.110   11.570    1.740     0.344    17.430   403.035  3.588E+09  6.010E+09
   7    0.130   13.310    1.740     0.320    16.356   374.895  3.161E+09  6.036E+09
   8    0.150   15.050    1.740     0.301    15.081   344.840  2.835E+09  5.845E+09
   9    0.170   16.790    1.740     0.285    13.672   313.526  2.576E+09  5.510E+09
  10    0.190   18.530    1.740     0.274    12.429   290.833  2.408E+09  4.989E+09
  11    0.210   20.270    1.740     0.264    11.241   273.476  2.277E+09  4.486E+09
  12    0.230   22.010    1.740     0.257    10.234   278.734  2.278E+09  4.217E+09
  13    0.250   23.750    1.740     0.251     9.230   284.951  2.278E+09  3.947E+09
  14    0.270   25.490    1.740     0.246     8.231   292.434  2.276E+09  3.672E+09
  15    0.290   27.230    1.740     0.243     7.295   295.895  2.211E+09  3.410E+09
  16    0.310   28.970    1.740     0.241     6.385   297.688  2.119E+09  3.152E+09
  17    0.330   30.710    1.740     0.241     5.556   285.313  1.873E+09  2.941E+09
  18    0.350   32.450    1.740     0.241     4.768   272.565  1.633E+09  2.723E+09
  19    0.370   34.190    1.740     0.243     4.093   259.465  1.416E+09  2.486E+09
  20    0.390   35.930    1.740     0.246     3.502   247.830  1.233E+09  2.273E+09
  21    0.410   37.670    1.740     0.249     2.984   237.471  1.079E+09  2.081E+09
  22    0.430   39.410    1.740     0.253     2.594   230.256  9.610E+08  1.931E+09
  23    0.450   41.150    1.740     0.258     2.239   223.833  8.525E+08  1.792E+09
  24    0.470   42.890    1.740     0.264     1.937   217.996  7.568E+08  1.651E+09
  25    0.490   44.630    1.740     0.270     1.663   211.757  6.650E+08  1.488E+09
  26    0.510   46.370    1.740     0.276     1.440   204.810  5.804E+08  1.288E+09
  27    0.530   48.110    1.740     0.282     1.243   196.397  5.019E+08  1.069E+09
  28    0.550   49.850    1.740     0.288     1.061   187.153  4.269E+08  8.393E+08
  29    0.570   51.590    1.740     0.294     0.875   178.277  3.622E+08  6.705E+08
  30    0.590   53.330    1.740     0.299     0.687   169.256  3.005E+08  5.213E+08
  31    0.610   55.070    1.740     0.304     0.499   159.467  2.477E+08  4.312E+08
  32    0.630   56.810    1.740     0.308     0.334   149.544  2.018E+08  3.588E+08
  33    0.650   58.550    1.740     0.311     0.198   139.467  1.637E+08  3.066E+08
  34    0.670   60.290    1.740     0.313     0.069   129.664  1.352E+08  2.640E+08
  35    0.690   62.030    1.740     0.315    -0.057   120.071  1.101E+08  2.252E+08
  36    0.710   63.770    1.740     0.317    -0.172   117.012  9.678E+07  2.148E+08
  37    0.730   65.510    1.740     0.317    -0.288   114.812  8.489E+07  2.077E+08
  38    0.750   67.250    1.740     0.316    -0.406   114.681  7.653E+07  2.083E+08
  39    0.770   68.990    1.740     0.314    -0.538   114.669  6.967E+07  2.096E+08
  40    0.790   70.730    1.740     0.310    -0.682   114.747  6.395E+07  2.114E+08
  41    0.810   72.470    1.740     0.305    -0.840    99.539  5.336E+07  1.615E+08
  42    0.830   74.210    1.740     0.299    -1.002    81.508  4.189E+07  1.067E+08
  43    0.850   75.950    1.740     0.292    -1.173    63.347  3.042E+07  8.503E+07
  44    0.870   77.690    1.740     0.286    -1.365    45.442  1.956E+07  6.301E+07
  45    0.890   79.430    1.740     0.280    -1.593    27.925  9.647E+06  4.042E+07
  46    0.910   81.170    1.740     0.275    -1.919    19.456  4.880E+06  2.743E+07
  47    0.930   82.910    1.740     0.271    -2.292    15.396  2.622E+06  1.912E+07
  48    0.950   84.650    1.740     0.268    -2.875     9.362  1.222E+06  1.010E+07
  49    0.970   86.390    1.740     0.264    -3.505     4.131  1.507E+05  2.678E+06
  50    0.990   88.130    1.740     0.255    -4.262     2.046  5.137E+04  9.140E+05


Interpolated blade 3 properties:

Node  BlFract   RNodes  DRNodes PitchAxis  StrcTwst  BMassDen    FlpStff    EdgStff
 (-)      (-)      (m)      (m)       (-)     (deg)    (kg/m)     (Nm^2)     (Nm^2)
   1    0.010    2.870    1.740     0.494    19.841   912.227  8.657E+09  8.700E+09
   2    0.030    4.610    1.740     0.482    19.530   768.691  7.401E+09  7.528E+09
   3    0.050    6.350    1.740     0.448    19.145   653.400  6.438E+09  7.109E+09
   4    0.070    8.090    1.740     0.408    18.729   547.623  5.549E+09  6.890E+09
   5    0.090    9.830    1.740     0.374    18.162   466.681  4.461E+09  6.359E+09
   6    0.110   11.570    1.740     0.344    17.430   403.035  3.588E+09  6.010E+09
   7    0.130   13.310    1.740     0.320    16.356   374.895  3.161E+09  6.036E+09
   8    0.150   15.050    1.740     0.301    15.081   344.840  2.835E+09  5.845E+09
   9    0.170   16.790    1.740     0.285    13.672   313.526  2.576E+09  5.510E+09
  10    0.190   18.530    1.740     0.274    12.429   290.833  2.408E+09  4.989E+09
  11    0.210   20.270    1.740     0.264    11.241   273.476  2.277E+09  4.486E+09
  12    0.230   22.010    1.740     0.257    10.234   278.734  2.278E+09  4.217E+09
  13    0.250   23.750    1.740     0.251     9.230   284.951  2.278E+09  3.947E+09
  14    0.270   25.490    1.740     0.246     8.231   292.434  2.276E+09  3.672E+09
  15    0.290   27.230    1.740     0.243     7.295   295.895  2.211E+09  3.410E+09
  16    0.310   28.970    1.740     0.241     6.385   297.688  2.119E+09  3.152E+09
  17    0.330   30.710    1.740     0.241     5.556   285.313  1.873E+09  2.941E+09
  18    0.350   32.450    1.740     0.241     4.768   272.565  1.633E+09  2.723E+09
  19    0.370   34.190    1.740     0.243     4.093   259.465  1.416E+09  2.486E+09
  20    0.390   35.930    1.740     0.246     3.502   247.830  1.233E+09  2.273E+09
  21    0.410   37.670    1.740     0.249     2.984   237.471  1.079E+09  2.081E+09
  22    0.430   39.410    1.740     0.253     2.594   230.256  9.610E+08  1.931E+09
  23    0.450   41.150    1.740     0.258     2.239   223.833  8.525E+08  1.792E+09
  24    0.470   42.890    1.740     0.264     1.937   217.996  7.568E+08  1.651E+09
  25    0.490   44.630    1.740     0.270     1.663   211.757  6.650E+08  1.488E+09
  26    0.510   46.370    1.740     0.276     1.440   204.810  5.804E+08  1.288E+09
  27    0.530   48.110    1.740     0.282     1.243   196.397  5.019E+08  1.069E+09
  28    0.550   49.850    1.740     0.288     1.061   187.153  4.269E+08  8.393E+08
  29    0.570   51.590    1.740     0.294     0.875   178.277  3.622E+08  6.705E+08
  30    0.590   53.330    1.740     0.299     0.687   169.256  3.005E+08  5.213E+08
  31    0.610   55.070    1.740     0.304     0.499   159.467  2.477E+08  4.312E+08
  32    0.630   56.810    1.740     0.308     0.334   149.544  2.018E+08  3.588E+08
  33    0.650   58.550    1.740     0.311     0.198   139.467  1.637E+08  3.066E+08
  34    0.670   60.290    1.740     0.313     0.069   129.664  1.352E+08  2.640E+08
  35    0.690   62.030    1.740     0.315    -0.057   120.071  1.101E+08  2.252E+08
  36    0.710   63.770    1.740     0.317    -0.172   117.012  9.678E+07  2.148E+08
  37    0.730   65.510    1.740     0.317    -0.288   114.812  8.489E+07  2.077E+08
  38    0.750   67.250    1.740     0.316    -0.406   114.681  7.653E+07  2.083E+08
  39    0.770   68.990    1.740     0.314    -0.538   114.669  6.967E+07  2.096E+08
  40    0.790   70.730    1.740     0.310    -0.682   114.747  6.395E+07  2.114E+08
  41    0.810   72.470    1.740     0.305    -0.840    99.539  5.336E+07  1.615E+08
  42    0.830   74.210    1.740     0.299    -1.002    81.508  4.189E+07  1.067E+08
  43    0.850   75.950    1.740     0.292    -1.173    63.347  3.042E+07  8.503E+07
  44    0.870   77.690    1.740     0.286    -1.365    45.442  1.956E+07  6.301E+07
  45    0.890   79.430    1.740     0.280    -1.593    27.925  9.647E+06  4.042E+07
  46    0.910   81.170    1.740     0.275    -1.919    19.456  4.880E+06  2.743E+07
  47    0.930   82.910    1.740     0.271    -2.292    15.396  2.622E+06  1.912E+07
  48    0.950   84.650    1.740     0.268    -2.875     9.362  1.222E+06  1.010E+07
  49    0.970   86.390    1.740     0.264    -3.505     4.131  1.507E+05  2.678E+06
  50    0.990   88.130    1.740     0.255    -4.262     2.046  5.137E+04  9.140E+05


Requested Outputs:


 Col   Parameter            Units               
 ---   ---------------      ---------------     
   0   Time                 (s)                 
   1   YawPzn               (deg)               
   2   BldPitch1            (deg)               
   3   BldPitch2            (deg)               
   4   BldPitch3            (deg)               
   5   Azimuth              (deg)               
   6   RotSpeed             (rpm)               
   7   RotTorq              (kN-m)              
   8   RotPwr               (kW)                
   9   TipClrnc1            (m)                 
  10   TipClrnc2            (m)                 
  11   TipClrnc3            (m)                 
  12   TTDspFA              (m)                 
  13   TTDspSS              (m)                 
  14   RootFxb1             (kN)                
  15   RootFyb1             (kN)                
  16   RootFzb1             (kN)                
  17   RootMxb1             (kN-m)              
  18   RootMyb1             (kN-m)              
  19   RootMzb1             (kN-m)              
  20   RootFxc1             (kN)                
  21   RootFyc1             (kN)                
  22   RootMxc1             (kN-m)              
  23   RootMyc1             (kN-m)              
  24   LSShftFxa            (kN)                
  25   LSShftFya            (kN)                
  26   LSShftFza            (kN)                
  27   LSShftMxa            (kN-m)              
  28   LSSTipMya            (kN-m)              
  29   LSSTipMza            (kN-m)              
  30   LSShftFys            (kN)                
  31   LSShftFzs            (kN)                
  32   LSSTipMys            (kN-m)              
  33   LSSTipMzs            (kN-m)              
  34   HSShftTq             (kN-m)              
  35   HSSBrTq              (kN-m)              
  36   HSShftPwr            (kW)                
  37   HSShftV              (rpm)               
  38   HSShftA              (deg/s^2)           
  39   YawBrFxp             (kN)                
  40   YawBrFyp             (kN)                
  41   YawBrFzp             (kN)                
  42   YawBrMxp             (kN-m)              
  43   YawBrMyp             (kN-m)              
  44   YawBrMzp             (kN-m)              
  45   TwrBsFxt             (kN)                
  46   TwrBsFyt             (kN)                
  47   TwrBsFzt             (kN)                
  48   TwrBsMxt             (kN-m)              
  49   TwrBsMyt             (kN-m)              
  50   TwrBsMzt             (kN-m)              


  Requested Output Channels at each blade station:
 Col   Parameter            Units               
 ---   ---------------      ---------------     
